
 OpenBabel03222517363D

 11 13  0  0  0  0  0  0  0  0999 V2000
   -1.8914    0.3211    0.4276 C   0  0  0  0  0  0  0  0  0  0  0  0
   -1.7128   -0.5245   -1.0746 C   0  0  0  0  0  0  0  0  0  0  0  0
   -0.0217   -0.1719   -1.4922 C   0  0  0  0  0  0  0  0  0  0  0  0
   -0.4425   -0.6081   -0.1732 C   0  0  0  0  0  0  0  0  0  0  0  0
   -0.4244    1.4653    0.3908 C   0  0  0  0  0  0  0  0  0  0  0  0
    0.4831    1.5934   -0.7636 C   0  0  0  0  0  0  0  0  0  0  0  0
    1.6527   -0.0160   -1.2879 C   0  0  0  0  0  0  0  0  0  0  0  0
    2.6658   -0.5135   -0.1242 C   0  0  0  0  0  0  0  0  0  0  0  0
    1.4701   -0.4988    0.6385 C   0  0  0  0  0  0  0  0  0  0  0  0
    0.0907    0.0414    1.4993 C   0  0  0  0  0  0  0  0  0  0  0  0
    1.3945    0.9253   -0.4800 C   0  0  0  0  0  0  0  0  0  0  0  0
  1  2  1  0  0  0  0
  1  5  1  0  0  0  0
  2  3  1  0  0  0  0
  3  4  1  0  0  0  0
  4  5  1  0  0  0  0
  4  6  1  0  0  0  0
  4 10  1  0  0  0  0
  6  7  1  0  0  0  0
  7  8  1  0  0  0  0
  7 11  1  0  0  0  0
  8  9  1  0  0  0  0
  9 10  1  0  0  0  0
 10 11  1  0  0  0  0
M  END
