
 OpenBabel03222517353D

 11 13  0  0  0  0  0  0  0  0999 V2000
    0.2433    1.1723    1.3492 C   0  0  0  0  0  0  0  0  0  0  0  0
   -0.9321    2.1840    0.3194 C   0  0  0  0  0  0  0  0  0  0  0  0
   -1.3408    1.3172   -0.6713 C   0  0  0  0  0  0  0  0  0  0  0  0
   -1.8002   -0.0908   -1.0910 C   0  0  0  0  0  0  0  0  0  0  0  0
   -0.8738   -0.7566   -0.1358 C   0  0  0  0  0  0  0  0  0  0  0  0
   -0.6662   -1.9696    0.7628 C   0  0  0  0  0  0  0  0  0  0  0  0
    0.5813   -2.0253    0.0286 C   0  0  0  0  0  0  0  0  0  0  0  0
    1.1286   -0.6145    0.9756 C   0  0  0  0  0  0  0  0  0  0  0  0
    2.1320   -0.2910   -0.0299 C   0  0  0  0  0  0  0  0  0  0  0  0
    0.7886    0.0947   -0.7167 C   0  0  0  0  0  0  0  0  0  0  0  0
    0.1417    1.2366   -1.3800 C   0  0  0  0  0  0  0  0  0  0  0  0
  1  2  1  0  0  0  0
  1 11  1  0  0  0  0
  2  3  1  0  0  0  0
  3  4  1  0  0  0  0
  3 10  1  0  0  0  0
  4  5  1  0  0  0  0
  5  6  1  0  0  0  0
  5  9  1  0  0  0  0
  6  7  1  0  0  0  0
  7  8  1  0  0  0  0
  8  9  1  0  0  0  0
  9 10  1  0  0  0  0
 10 11  1  0  0  0  0
M  END
