
 OpenBabel03222517383D

 14 17  0  0  0  0  0  0  0  0999 V2000
   -1.6627   -0.8622    0.2252 C   0  0  0  0  0  0  0  0  0  0  0  0
   -2.6877   -1.5492   -0.5326 C   0  0  0  0  0  0  0  0  0  0  0  0
   -1.3462   -1.7580    0.1428 C   0  0  0  0  0  0  0  0  0  0  0  0
    0.2155   -0.3475   -0.2822 C   0  0  0  0  0  0  0  0  0  0  0  0
    0.2436    0.2799   -1.5541 C   0  0  0  0  0  0  0  0  0  0  0  0
   -0.5169    0.5902   -0.2310 C   0  0  0  0  0  0  0  0  0  0  0  0
   -0.6326    1.4908    0.9917 C   0  0  0  0  0  0  0  0  0  0  0  0
    0.3568    1.7169    0.1309 C   0  0  0  0  0  0  0  0  0  0  0  0
    1.8480    1.9588    0.6482 C   0  0  0  0  0  0  0  0  0  0  0  0
    2.9462    0.4784    0.1514 C   0  0  0  0  0  0  0  0  0  0  0  0
    1.6724   -0.8986   -0.3787 C   0  0  0  0  0  0  0  0  0  0  0  0
    0.3279   -1.6295   -0.1261 C   0  0  0  0  0  0  0  0  0  0  0  0
    1.7775   -0.1786    0.7580 C   0  0  0  0  0  0  0  0  0  0  0  0
    1.5409    0.6262   -1.1663 C   0  0  0  0  0  0  0  0  0  0  0  0
  1  2  1  0  0  0  0
  1  8  1  0  0  0  0
  2  3  1  0  0  0  0
  3  4  1  0  0  0  0
  4  5  1  0  0  0  0
  4  7  1  0  0  0  0
  4 12  1  0  0  0  0
  5  6  1  0  0  0  0
  6  7  1  0  0  0  0
  7  8  1  0  0  0  0
  7  9  1  0  0  0  0
  9 10  1  0  0  0  0
  9 14  1  0  0  0  0
 10 11  1  0  0  0  0
 11 12  1  0  0  0  0
 12 13  1  0  0  0  0
 13 14  1  0  0  0  0
M  END
