
 OpenBabel03222517363D

 10 13  0  0  0  0  0  0  0  0999 V2000
    0.5571   -0.1596   -0.1943 C   0  0  0  0  0  0  0  0  0  0  0  0
    0.0296    1.2244   -0.0796 C   0  0  0  0  0  0  0  0  0  0  0  0
   -1.3181    0.8653    0.6303 C   0  0  0  0  0  0  0  0  0  0  0  0
   -1.3571   -0.7262    0.8427 C   0  0  0  0  0  0  0  0  0  0  0  0
   -0.7666   -0.9338   -0.5381 C   0  0  0  0  0  0  0  0  0  0  0  0
   -2.1116   -0.2744   -1.1716 C   0  0  0  0  0  0  0  0  0  0  0  0
   -2.3886    0.4269   -2.3980 C   0  0  0  0  0  0  0  0  0  0  0  0
   -1.8524    1.6177   -3.0282 C   0  0  0  0  0  0  0  0  0  0  0  0
   -2.4708    1.8011   -1.6448 C   0  0  0  0  0  0  0  0  0  0  0  0
   -2.4494    1.0089   -0.3724 C   0  0  0  0  0  0  0  0  0  0  0  0
  1  2  1  0  0  0  0
  1  5  1  0  0  0  0
  2  3  1  0  0  0  0
  3  4  1  0  0  0  0
  3  9  1  0  0  0  0
  4  5  1  0  0  0  0
  5  6  1  0  0  0  0
  6  7  1  0  0  0  0
  6 10  1  0  0  0  0
  7  8  1  0  0  0  0
  8  9  1  0  0  0  0
  8 10  1  0  0  0  0
  9 10  1  0  0  0  0
M  END
