
 OpenBabel03222517383D

 15 19  0  0  0  0  0  0  0  0999 V2000
    3.1035   -0.8747    0.6088 C   0  0  0  0  0  0  0  0  0  0  0  0
    3.4850    0.4006   -0.1558 C   0  0  0  0  0  0  0  0  0  0  0  0
    2.1407    0.5861   -0.8690 C   0  0  0  0  0  0  0  0  0  0  0  0
    2.5148   -0.8416   -1.4867 C   0  0  0  0  0  0  0  0  0  0  0  0
    2.1497   -1.7438   -0.2645 C   0  0  0  0  0  0  0  0  0  0  0  0
    0.8716   -1.2701    0.3259 C   0  0  0  0  0  0  0  0  0  0  0  0
   -0.3636   -2.1585    0.2588 C   0  0  0  0  0  0  0  0  0  0  0  0
   -1.2361   -0.9671    0.0703 C   0  0  0  0  0  0  0  0  0  0  0  0
   -2.7767   -1.0419    0.2768 C   0  0  0  0  0  0  0  0  0  0  0  0
   -3.7471    0.2525    0.3885 C   0  0  0  0  0  0  0  0  0  0  0  0
   -2.7976    1.2658    0.6386 C   0  0  0  0  0  0  0  0  0  0  0  0
   -2.0052    0.8066   -0.6694 C   0  0  0  0  0  0  0  0  0  0  0  0
   -2.8600   -0.7662   -1.2099 C   0  0  0  0  0  0  0  0  0  0  0  0
   -0.6702    0.3852    0.0643 C   0  0  0  0  0  0  0  0  0  0  0  0
    0.6873    0.0454   -0.5762 C   0  0  0  0  0  0  0  0  0  0  0  0
  1  2  1  0  0  0  0
  1  5  1  0  0  0  0
  2  3  1  0  0  0  0
  3  4  1  0  0  0  0
  3 15  1  0  0  0  0
  4  5  1  0  0  0  0
  5  6  1  0  0  0  0
  6  7  1  0  0  0  0
  6 15  1  0  0  0  0
  7  8  1  0  0  0  0
  8  9  1  0  0  0  0
  8 14  1  0  0  0  0
  9 10  1  0  0  0  0
  9 13  1  0  0  0  0
 10 11  1  0  0  0  0
 11 12  1  0  0  0  0
 12 13  1  0  0  0  0
 12 14  1  0  0  0  0
 14 15  1  0  0  0  0
M  END
