
 OpenBabel03222517363D

 12 14  0  0  0  0  0  0  0  0999 V2000
    0.6015    1.8237   -0.6822 C   0  0  0  0  0  0  0  0  0  0  0  0
    1.8466    1.0607   -0.7682 C   0  0  0  0  0  0  0  0  0  0  0  0
    1.2432   -0.5756   -0.1408 C   0  0  0  0  0  0  0  0  0  0  0  0
   -0.1745   -1.9372   -0.4160 C   0  0  0  0  0  0  0  0  0  0  0  0
   -1.2467   -1.9830    0.7119 C   0  0  0  0  0  0  0  0  0  0  0  0
   -2.3763   -0.7513    0.2870 C   0  0  0  0  0  0  0  0  0  0  0  0
   -1.7829    0.4371    0.8879 C   0  0  0  0  0  0  0  0  0  0  0  0
   -0.3708    0.0927    0.4282 C   0  0  0  0  0  0  0  0  0  0  0  0
    0.1224   -0.5547    1.9777 C   0  0  0  0  0  0  0  0  0  0  0  0
    0.0458   -2.0041    1.5696 C   0  0  0  0  0  0  0  0  0  0  0  0
    0.4732   -0.4713   -1.1022 C   0  0  0  0  0  0  0  0  0  0  0  0
   -0.0396    0.6848   -1.9569 C   0  0  0  0  0  0  0  0  0  0  0  0
  1  2  1  0  0  0  0
  1  8  1  0  0  0  0
  2  3  1  0  0  0  0
  3  4  1  0  0  0  0
  3 11  1  0  0  0  0
  4  5  1  0  0  0  0
  5  6  1  0  0  0  0
  5 12  1  0  0  0  0
  6  7  1  0  0  0  0
  7  8  1  0  0  0  0
  8  9  1  0  0  0  0
  9 10  1  0  0  0  0
 10 11  1  0  0  0  0
 10 12  1  0  0  0  0
M  END
