
 OpenBabel03222517353D

 12 13  0  0  0  0  0  0  0  0999 V2000
   -2.5288   -0.9400    0.3836 C   0  0  0  0  0  0  0  0  0  0  0  0
   -1.7927   -2.0016   -0.4019 C   0  0  0  0  0  0  0  0  0  0  0  0
   -0.5209   -2.3841    0.3308 C   0  0  0  0  0  0  0  0  0  0  0  0
    0.6619   -1.7669   -0.3894 C   0  0  0  0  0  0  0  0  0  0  0  0
    1.2022   -0.4671    0.2197 C   0  0  0  0  0  0  0  0  0  0  0  0
    2.6154   -0.3203   -0.4148 C   0  0  0  0  0  0  0  0  0  0  0  0
    3.0263    1.0503    0.0871 C   0  0  0  0  0  0  0  0  0  0  0  0
    1.8271    1.8154   -0.4553 C   0  0  0  0  0  0  0  0  0  0  0  0
    0.6811    1.0727    0.2734 C   0  0  0  0  0  0  0  0  0  0  0  0
   -0.6018    1.9189    0.0808 C   0  0  0  0  0  0  0  0  0  0  0  0
   -1.9718    1.4608    0.5408 C   0  0  0  0  0  0  0  0  0  0  0  0
   -2.5450    0.3858   -0.3567 C   0  0  0  0  0  0  0  0  0  0  0  0
  1  2  1  0  0  0  0
  1 12  1  0  0  0  0
  2  3  1  0  0  0  0
  3  4  1  0  0  0  0
  4  5  1  0  0  0  0
  5  6  1  0  0  0  0
  5 10  1  0  0  0  0
  6  7  1  0  0  0  0
  7  8  1  0  0  0  0
  8  9  1  0  0  0  0
  9 10  1  0  0  0  0
 10 11  1  0  0  0  0
 11 12  1  0  0  0  0
M  END
