
 OpenBabel03222517363D

  9 13  0  0  0  0  0  0  0  0999 V2000
    1.1858   -0.2160    0.2999 C   0  0  0  0  0  0  0  0  0  0  0  0
    0.6597    0.0576   -1.0323 C   0  0  0  0  0  0  0  0  0  0  0  0
    0.5599    1.1350    0.1239 C   0  0  0  0  0  0  0  0  0  0  0  0
    1.4428    2.4261    0.1890 C   0  0  0  0  0  0  0  0  0  0  0  0
    1.2612    3.2544   -1.0542 C   0  0  0  0  0  0  0  0  0  0  0  0
    0.6833    3.7417    0.2339 C   0  0  0  0  0  0  0  0  0  0  0  0
   -0.7155    3.4243   -0.1873 C   0  0  0  0  0  0  0  0  0  0  0  0
   -0.1504    2.9594   -1.4932 C   0  0  0  0  0  0  0  0  0  0  0  0
   -0.6442    1.9534   -0.3765 C   0  0  0  0  0  0  0  0  0  0  0  0
  1  2  1  0  0  0  0
  1  3  1  0  0  0  0
  2  3  1  0  0  0  0
  3  4  1  0  0  0  0
  3  9  1  0  0  0  0
  4  5  1  0  0  0  0
  4  6  1  0  0  0  0
  5  6  1  0  0  0  0
  5  8  1  0  0  0  0
  6  7  1  0  0  0  0
  7  8  1  0  0  0  0
  7  9  1  0  0  0  0
  8  9  1  0  0  0  0
M  END
