
 OpenBabel03222517363D

 11 13  0  0  0  0  0  0  0  0999 V2000
   -1.6878    0.4029   -1.4607 C   0  0  0  0  0  0  0  0  0  0  0  0
   -1.3309    1.4827   -0.5164 C   0  0  0  0  0  0  0  0  0  0  0  0
   -0.2108    0.8180    0.3327 C   0  0  0  0  0  0  0  0  0  0  0  0
   -0.5569   -0.2194    1.4420 C   0  0  0  0  0  0  0  0  0  0  0  0
   -0.5739   -1.6262    0.8408 C   0  0  0  0  0  0  0  0  0  0  0  0
    0.8839   -1.8264    0.4084 C   0  0  0  0  0  0  0  0  0  0  0  0
    1.9269   -0.6345    0.0639 C   0  0  0  0  0  0  0  0  0  0  0  0
    2.5395    0.6556   -0.6677 C   0  0  0  0  0  0  0  0  0  0  0  0
    1.1911    0.8737   -1.6777 C   0  0  0  0  0  0  0  0  0  0  0  0
   -0.3893    0.3014   -2.4013 C   0  0  0  0  0  0  0  0  0  0  0  0
    0.7181    0.0408   -0.6088 C   0  0  0  0  0  0  0  0  0  0  0  0
  1  2  1  0  0  0  0
  1  6  1  0  0  0  0
  2  3  1  0  0  0  0
  3  4  1  0  0  0  0
  4  5  1  0  0  0  0
  4  7  1  0  0  0  0
  4  9  1  0  0  0  0
  5  6  1  0  0  0  0
  7  8  1  0  0  0  0
  8  9  1  0  0  0  0
  9 10  1  0  0  0  0
  9 11  1  0  0  0  0
 10 11  1  0  0  0  0
M  END
