
 OpenBabel03222517353D

  9 12  0  0  0  0  0  0  0  0999 V2000
   -1.6797   -0.3493    0.8403 C   0  0  0  0  0  0  0  0  0  0  0  0
   -1.4972   -1.8263    0.6079 C   0  0  0  0  0  0  0  0  0  0  0  0
   -0.2170   -1.3430   -0.1343 C   0  0  0  0  0  0  0  0  0  0  0  0
    0.0578   -0.4804    1.0606 C   0  0  0  0  0  0  0  0  0  0  0  0
    1.2445    0.1060    0.0014 C   0  0  0  0  0  0  0  0  0  0  0  0
    1.3509    1.5417    0.3607 C   0  0  0  0  0  0  0  0  0  0  0  0
   -0.0982    1.6478   -0.1904 C   0  0  0  0  0  0  0  0  0  0  0  0
    0.0432    0.1705   -0.8446 C   0  0  0  0  0  0  0  0  0  0  0  0
    1.2276   -0.0489   -1.6950 C   0  0  0  0  0  0  0  0  0  0  0  0
  1  2  1  0  0  0  0
  1  7  1  0  0  0  0
  2  3  1  0  0  0  0
  3  4  1  0  0  0  0
  3  9  1  0  0  0  0
  4  5  1  0  0  0  0
  4  9  1  0  0  0  0
  5  6  1  0  0  0  0
  6  7  1  0  0  0  0
  6  8  1  0  0  0  0
  7  8  1  0  0  0  0
  8  9  1  0  0  0  0
M  END
