
 OpenBabel03222517383D

 15 19  0  0  0  0  0  0  0  0999 V2000
   -1.6967    0.7451    0.1727 C   0  0  0  0  0  0  0  0  0  0  0  0
   -1.6982   -0.7857   -0.0318 C   0  0  0  0  0  0  0  0  0  0  0  0
   -0.4625   -1.4382    0.6335 C   0  0  0  0  0  0  0  0  0  0  0  0
    0.6595   -0.8863   -0.1129 C   0  0  0  0  0  0  0  0  0  0  0  0
    0.7005    0.7144    0.2539 C   0  0  0  0  0  0  0  0  0  0  0  0
   -0.4416    1.3596   -0.4607 C   0  0  0  0  0  0  0  0  0  0  0  0
    1.8740   -0.1489    0.0460 C   0  0  0  0  0  0  0  0  0  0  0  0
    3.1456   -0.2934    0.5999 C   0  0  0  0  0  0  0  0  0  0  0  0
    3.0102    0.1053   -0.9055 C   0  0  0  0  0  0  0  0  0  0  0  0
    2.3563    0.9421   -2.0404 C   0  0  0  0  0  0  0  0  0  0  0  0
    2.6106    1.2868   -3.4666 C   0  0  0  0  0  0  0  0  0  0  0  0
    2.9727    2.7788   -3.4516 C   0  0  0  0  0  0  0  0  0  0  0  0
    4.3858    2.9209   -2.8610 C   0  0  0  0  0  0  0  0  0  0  0  0
    4.6717    1.8581   -1.7920 C   0  0  0  0  0  0  0  0  0  0  0  0
    3.3882    1.5375   -1.1247 C   0  0  0  0  0  0  0  0  0  0  0  0
  1  2  1  0  0  0  0
  1  6  1  0  0  0  0
  2  3  1  0  0  0  0
  3  4  1  0  0  0  0
  4  5  1  0  0  0  0
  4  7  1  0  0  0  0
  5  6  1  0  0  0  0
  5  7  1  0  0  0  0
  7  8  1  0  0  0  0
  7  9  1  0  0  0  0
  8  9  1  0  0  0  0
  9 10  1  0  0  0  0
  9 15  1  0  0  0  0
 10 11  1  0  0  0  0
 10 15  1  0  0  0  0
 11 12  1  0  0  0  0
 12 13  1  0  0  0  0
 13 14  1  0  0  0  0
 14 15  1  0  0  0  0
M  END
