
 OpenBabel03222517353D

  8  8  0  0  0  0  0  0  0  0999 V2000
    1.5029   -1.1537    0.0712 C   0  0  0  0  0  0  0  0  0  0  0  0
    1.5602    0.1592   -0.7034 C   0  0  0  0  0  0  0  0  0  0  0  0
    1.2422    1.4124    0.1079 C   0  0  0  0  0  0  0  0  0  0  0  0
   -0.1921    1.5867    0.6137 C   0  0  0  0  0  0  0  0  0  0  0  0
   -1.2885    1.1834   -0.3713 C   0  0  0  0  0  0  0  0  0  0  0  0
   -1.9075   -0.2004   -0.1501 C   0  0  0  0  0  0  0  0  0  0  0  0
   -1.0156   -1.4354   -0.2993 C   0  0  0  0  0  0  0  0  0  0  0  0
    0.1537   -1.5313    0.6789 C   0  0  0  0  0  0  0  0  0  0  0  0
  1  2  1  0  0  0  0
  1  8  1  0  0  0  0
  2  3  1  0  0  0  0
  3  4  1  0  0  0  0
  4  5  1  0  0  0  0
  5  6  1  0  0  0  0
  6  7  1  0  0  0  0
  7  8  1  0  0  0  0
M  END
