
 OpenBabel03222517363D

 15 16  0  0  0  0  0  0  0  0999 V2000
   -3.3672   -0.8956   -0.3938 C   0  0  0  0  0  0  0  0  0  0  0  0
   -2.2941   -1.6681    0.3383 C   0  0  0  0  0  0  0  0  0  0  0  0
   -1.3448   -2.2818   -0.6624 C   0  0  0  0  0  0  0  0  0  0  0  0
   -0.2672   -2.9412    0.1331 C   0  0  0  0  0  0  0  0  0  0  0  0
    0.7141   -1.8932    0.7306 C   0  0  0  0  0  0  0  0  0  0  0  0
    1.1102   -0.4758   -0.0705 C   0  0  0  0  0  0  0  0  0  0  0  0
    2.6424   -0.8406   -0.3201 C   0  0  0  0  0  0  0  0  0  0  0  0
    3.6821    0.2338   -0.4278 C   0  0  0  0  0  0  0  0  0  0  0  0
    3.2205    1.4006    0.4167 C   0  0  0  0  0  0  0  0  0  0  0  0
    2.0463    1.9324   -0.3661 C   0  0  0  0  0  0  0  0  0  0  0  0
    0.8527    1.2308    0.2849 C   0  0  0  0  0  0  0  0  0  0  0  0
   -0.2863    2.2248   -0.1920 C   0  0  0  0  0  0  0  0  0  0  0  0
   -1.5856    1.9769    0.5164 C   0  0  0  0  0  0  0  0  0  0  0  0
   -2.5602    1.4276   -0.4923 C   0  0  0  0  0  0  0  0  0  0  0  0
   -3.5230    0.4879    0.2072 C   0  0  0  0  0  0  0  0  0  0  0  0
  1  2  1  0  0  0  0
  1 15  1  0  0  0  0
  2  3  1  0  0  0  0
  3  4  1  0  0  0  0
  4  5  1  0  0  0  0
  5  6  1  0  0  0  0
  6  7  1  0  0  0  0
  7  8  1  0  0  0  0
  7 11  1  0  0  0  0
  8  9  1  0  0  0  0
  9 10  1  0  0  0  0
 10 11  1  0  0  0  0
 11 12  1  0  0  0  0
 12 13  1  0  0  0  0
 13 14  1  0  0  0  0
 14 15  1  0  0  0  0
M  END
