
 OpenBabel03222517363D

 10 13  0  0  0  0  0  0  0  0999 V2000
    0.2908   -0.4484   -0.3576 C   0  0  0  0  0  0  0  0  0  0  0  0
    0.6095   -0.4958   -1.7705 C   0  0  0  0  0  0  0  0  0  0  0  0
    1.5879   -1.8180   -1.6061 C   0  0  0  0  0  0  0  0  0  0  0  0
    2.8439   -1.5680   -0.4779 C   0  0  0  0  0  0  0  0  0  0  0  0
    3.7801   -2.7376    0.0080 C   0  0  0  0  0  0  0  0  0  0  0  0
    2.6405   -3.7350   -0.1898 C   0  0  0  0  0  0  0  0  0  0  0  0
    1.6685   -3.3564    0.6782 C   0  0  0  0  0  0  0  0  0  0  0  0
    2.0766   -1.9810    1.1344 C   0  0  0  0  0  0  0  0  0  0  0  0
    1.0862   -3.0601   -0.7523 C   0  0  0  0  0  0  0  0  0  0  0  0
   -0.1186   -2.0405   -0.3633 C   0  0  0  0  0  0  0  0  0  0  0  0
  1  2  1  0  0  0  0
  1 10  1  0  0  0  0
  2  3  1  0  0  0  0
  3  4  1  0  0  0  0
  3  9  1  0  0  0  0
  4  5  1  0  0  0  0
  4 10  1  0  0  0  0
  5  6  1  0  0  0  0
  6  7  1  0  0  0  0
  6  9  1  0  0  0  0
  7  8  1  0  0  0  0
  7 10  1  0  0  0  0
  8  9  1  0  0  0  0
M  END
