
 OpenBabel03222517353D

  7  9  0  0  0  0  0  0  0  0999 V2000
   -1.5550    0.6845    0.0952 C   0  0  0  0  0  0  0  0  0  0  0  0
   -0.2943    1.4089   -0.2710 C   0  0  0  0  0  0  0  0  0  0  0  0
    0.4713    0.1537   -0.6516 C   0  0  0  0  0  0  0  0  0  0  0  0
   -0.3314   -1.1586   -0.7578 C   0  0  0  0  0  0  0  0  0  0  0  0
   -0.8253   -0.5974    0.5698 C   0  0  0  0  0  0  0  0  0  0  0  0
    0.8315   -0.4302    0.7103 C   0  0  0  0  0  0  0  0  0  0  0  0
    1.9058    0.0409   -0.3900 C   0  0  0  0  0  0  0  0  0  0  0  0
  1  2  1  0  0  0  0
  1  5  1  0  0  0  0
  2  3  1  0  0  0  0
  3  4  1  0  0  0  0
  3  6  1  0  0  0  0
  3  7  1  0  0  0  0
  4  5  1  0  0  0  0
  5  6  1  0  0  0  0
  6  7  1  0  0  0  0
M  END
