
 OpenBabel03222517363D

 12 14  0  0  0  0  0  0  0  0999 V2000
    0.7570    1.1548   -0.7206 C   0  0  0  0  0  0  0  0  0  0  0  0
    2.2264    1.0917   -0.9490 C   0  0  0  0  0  0  0  0  0  0  0  0
    2.6884    0.1402    0.1808 C   0  0  0  0  0  0  0  0  0  0  0  0
    1.6277   -1.0560    0.5199 C   0  0  0  0  0  0  0  0  0  0  0  0
    0.4666   -1.3612   -0.4326 C   0  0  0  0  0  0  0  0  0  0  0  0
    0.2140   -0.1707   -1.3132 C   0  0  0  0  0  0  0  0  0  0  0  0
   -0.6312   -1.3991    0.6225 C   0  0  0  0  0  0  0  0  0  0  0  0
   -2.1292   -0.7967    0.3464 C   0  0  0  0  0  0  0  0  0  0  0  0
   -2.2795    0.6826    0.6849 C   0  0  0  0  0  0  0  0  0  0  0  0
   -1.3036    0.9674    1.8062 C   0  0  0  0  0  0  0  0  0  0  0  0
   -0.7105   -0.2559    2.5397 C   0  0  0  0  0  0  0  0  0  0  0  0
    0.4458   -0.9449    1.7295 C   0  0  0  0  0  0  0  0  0  0  0  0
  1  2  1  0  0  0  0
  1 10  1  0  0  0  0
  2  3  1  0  0  0  0
  3  4  1  0  0  0  0
  4  5  1  0  0  0  0
  4  8  1  0  0  0  0
  5  6  1  0  0  0  0
  5 12  1  0  0  0  0
  6  7  1  0  0  0  0
  7  8  1  0  0  0  0
  8  9  1  0  0  0  0
  8 11  1  0  0  0  0
  9 10  1  0  0  0  0
 11 12  1  0  0  0  0
M  END
