
 OpenBabel03222517373D

 12 14  0  0  0  0  0  0  0  0999 V2000
   -1.5851   -0.0362    0.7433 C   0  0  0  0  0  0  0  0  0  0  0  0
   -1.4548   -1.3243   -0.0666 C   0  0  0  0  0  0  0  0  0  0  0  0
   -0.0704   -1.6426   -0.6318 C   0  0  0  0  0  0  0  0  0  0  0  0
    1.0834   -1.4145    0.3548 C   0  0  0  0  0  0  0  0  0  0  0  0
    1.8236   -0.1378    0.0188 C   0  0  0  0  0  0  0  0  0  0  0  0
    3.3456   -0.1307    0.0885 C   0  0  0  0  0  0  0  0  0  0  0  0
    2.6658   -0.2652   -1.2484 C   0  0  0  0  0  0  0  0  0  0  0  0
    1.0758    1.2024    0.2964 C   0  0  0  0  0  0  0  0  0  0  0  0
   -0.0750    1.5283   -0.6640 C   0  0  0  0  0  0  0  0  0  0  0  0
   -1.4657    1.2419   -0.0878 C   0  0  0  0  0  0  0  0  0  0  0  0
    0.9107    1.7845    1.6824 C   0  0  0  0  0  0  0  0  0  0  0  0
    1.9303    2.4024    0.7615 C   0  0  0  0  0  0  0  0  0  0  0  0
  1  2  1  0  0  0  0
  1 10  1  0  0  0  0
  2  3  1  0  0  0  0
  3  4  1  0  0  0  0
  4  5  1  0  0  0  0
  5  6  1  0  0  0  0
  5  7  1  0  0  0  0
  5  8  1  0  0  0  0
  6  7  1  0  0  0  0
  8  9  1  0  0  0  0
  8 11  1  0  0  0  0
  8 12  1  0  0  0  0
  9 10  1  0  0  0  0
 11 12  1  0  0  0  0
M  END
