
 OpenBabel03222517353D

  9 11  0  0  0  0  0  0  0  0999 V2000
   -1.1523    1.2580   -0.2490 C   0  0  0  0  0  0  0  0  0  0  0  0
   -0.7993    0.0001   -1.0566 C   0  0  0  0  0  0  0  0  0  0  0  0
   -1.1815   -1.2321   -0.2179 C   0  0  0  0  0  0  0  0  0  0  0  0
   -0.0069   -1.2880    0.7576 C   0  0  0  0  0  0  0  0  0  0  0  0
    0.0107    0.0077    1.6242 C   0  0  0  0  0  0  0  0  0  0  0  0
    0.0100    1.2950    0.7447 C   0  0  0  0  0  0  0  0  0  0  0  0
    1.1671    1.2334   -0.2512 C   0  0  0  0  0  0  0  0  0  0  0  0
    0.7771   -0.0110   -1.0678 C   0  0  0  0  0  0  0  0  0  0  0  0
    1.1388   -1.2629   -0.2550 C   0  0  0  0  0  0  0  0  0  0  0  0
  1  2  1  0  0  0  0
  1  6  1  0  0  0  0
  2  3  1  0  0  0  0
  2  8  1  0  0  0  0
  3  4  1  0  0  0  0
  4  5  1  0  0  0  0
  4  9  1  0  0  0  0
  5  6  1  0  0  0  0
  6  7  1  0  0  0  0
  7  8  1  0  0  0  0
  8  9  1  0  0  0  0
M  END
