
 OpenBabel03222517353D

  9 12  0  0  0  0  0  0  0  0999 V2000
   -1.5741   -0.1898   -0.6183 C   0  0  0  0  0  0  0  0  0  0  0  0
   -0.3791    1.1857   -0.6425 C   0  0  0  0  0  0  0  0  0  0  0  0
   -0.4312    0.0879    0.2323 C   0  0  0  0  0  0  0  0  0  0  0  0
    0.8315   -0.5846   -0.2122 C   0  0  0  0  0  0  0  0  0  0  0  0
    2.1196    0.3723   -0.1390 C   0  0  0  0  0  0  0  0  0  0  0  0
    1.4482    1.1063   -1.2277 C   0  0  0  0  0  0  0  0  0  0  0  0
    1.8251   -0.1127   -2.3868 C   0  0  0  0  0  0  0  0  0  0  0  0
    0.7376   -1.0447   -3.1933 C   0  0  0  0  0  0  0  0  0  0  0  0
    0.4795   -0.2636   -1.9999 C   0  0  0  0  0  0  0  0  0  0  0  0
  1  2  1  0  0  0  0
  1  3  1  0  0  0  0
  2  3  1  0  0  0  0
  3  4  1  0  0  0  0
  3  5  1  0  0  0  0
  4  5  1  0  0  0  0
  5  6  1  0  0  0  0
  5  7  1  0  0  0  0
  6  7  1  0  0  0  0
  7  8  1  0  0  0  0
  7  9  1  0  0  0  0
  8  9  1  0  0  0  0
M  END
