
 OpenBabel03222517353D

  9 11  0  0  0  0  0  0  0  0999 V2000
    0.4059    0.7656   -1.6477 C   0  0  0  0  0  0  0  0  0  0  0  0
    0.4313   -0.7145   -1.2905 C   0  0  0  0  0  0  0  0  0  0  0  0
   -0.0153   -0.6808    0.1956 C   0  0  0  0  0  0  0  0  0  0  0  0
    1.2115   -0.4651    1.0627 C   0  0  0  0  0  0  0  0  0  0  0  0
    1.5751    0.9827    0.6590 C   0  0  0  0  0  0  0  0  0  0  0  0
    0.3881    1.4200   -0.2640 C   0  0  0  0  0  0  0  0  0  0  0  0
   -0.7571    0.6912    0.4276 C   0  0  0  0  0  0  0  0  0  0  0  0
   -2.0515   -0.0712    0.0013 C   0  0  0  0  0  0  0  0  0  0  0  0
   -1.3613   -1.3499    0.5654 C   0  0  0  0  0  0  0  0  0  0  0  0
  1  2  1  0  0  0  0
  1  6  1  0  0  0  0
  2  3  1  0  0  0  0
  3  4  1  0  0  0  0
  3  7  1  0  0  0  0
  3  9  1  0  0  0  0
  4  5  1  0  0  0  0
  5  6  1  0  0  0  0
  6  7  1  0  0  0  0
  7  8  1  0  0  0  0
  8  9  1  0  0  0  0
M  END
