
 OpenBabel03222517353D

 10 11  0  0  0  0  0  0  0  0999 V2000
    1.2987   -1.2130   -0.5279 C   0  0  0  0  0  0  0  0  0  0  0  0
    2.2323   -0.1210    0.0146 C   0  0  0  0  0  0  0  0  0  0  0  0
    1.5379    1.1366    0.5398 C   0  0  0  0  0  0  0  0  0  0  0  0
    0.5800    1.6921   -0.4781 C   0  0  0  0  0  0  0  0  0  0  0  0
   -0.8416    1.7392    0.0427 C   0  0  0  0  0  0  0  0  0  0  0  0
   -1.7379    0.7327    0.8687 C   0  0  0  0  0  0  0  0  0  0  0  0
   -1.9311   -0.0799   -0.4220 C   0  0  0  0  0  0  0  0  0  0  0  0
   -1.2354   -1.4645   -0.2107 C   0  0  0  0  0  0  0  0  0  0  0  0
    0.1648   -1.5833    0.4213 C   0  0  0  0  0  0  0  0  0  0  0  0
   -1.6746    1.3322   -1.1797 C   0  0  0  0  0  0  0  0  0  0  0  0
  1  2  1  0  0  0  0
  1  9  1  0  0  0  0
  2  3  1  0  0  0  0
  3  4  1  0  0  0  0
  4  5  1  0  0  0  0
  5  6  1  0  0  0  0
  5 10  1  0  0  0  0
  6  7  1  0  0  0  0
  7  8  1  0  0  0  0
  7 10  1  0  0  0  0
  8  9  1  0  0  0  0
M  END
