
 OpenBabel03222517373D

 12 14  0  0  0  0  0  0  0  0999 V2000
    0.5039    2.2907    0.0212 C   0  0  0  0  0  0  0  0  0  0  0  0
    1.5371    1.6173   -0.8737 C   0  0  0  0  0  0  0  0  0  0  0  0
    2.2017    0.5701   -0.0404 C   0  0  0  0  0  0  0  0  0  0  0  0
    1.3814   -0.6740    0.2932 C   0  0  0  0  0  0  0  0  0  0  0  0
    1.0599   -0.4834    1.7832 C   0  0  0  0  0  0  0  0  0  0  0  0
   -0.2513    0.4029    1.9790 C   0  0  0  0  0  0  0  0  0  0  0  0
   -1.2570    0.4962    0.7907 C   0  0  0  0  0  0  0  0  0  0  0  0
   -0.9109    1.7127   -0.1823 C   0  0  0  0  0  0  0  0  0  0  0  0
   -1.4316   -0.6200   -0.1750 C   0  0  0  0  0  0  0  0  0  0  0  0
   -1.7111   -2.1260   -0.4366 C   0  0  0  0  0  0  0  0  0  0  0  0
   -0.4183   -1.8814   -1.3850 C   0  0  0  0  0  0  0  0  0  0  0  0
    0.0040   -1.2345   -0.1848 C   0  0  0  0  0  0  0  0  0  0  0  0
  1  2  1  0  0  0  0
  1  8  1  0  0  0  0
  2  3  1  0  0  0  0
  3  4  1  0  0  0  0
  4  5  1  0  0  0  0
  4 12  1  0  0  0  0
  5  6  1  0  0  0  0
  6  7  1  0  0  0  0
  7  8  1  0  0  0  0
  7  9  1  0  0  0  0
  9 10  1  0  0  0  0
  9 12  1  0  0  0  0
 10 11  1  0  0  0  0
 11 12  1  0  0  0  0
M  END
