
 OpenBabel03222517363D

 11 14  0  0  0  0  0  0  0  0999 V2000
   -1.0046    1.6244    1.0214 C   0  0  0  0  0  0  0  0  0  0  0  0
   -1.2705    2.1657   -0.3450 C   0  0  0  0  0  0  0  0  0  0  0  0
   -1.0704    0.7512   -1.0864 C   0  0  0  0  0  0  0  0  0  0  0  0
   -1.7813   -0.3923   -0.8344 C   0  0  0  0  0  0  0  0  0  0  0  0
   -1.1717   -0.0668    0.7948 C   0  0  0  0  0  0  0  0  0  0  0  0
    0.2805   -0.3956    0.7080 C   0  0  0  0  0  0  0  0  0  0  0  0
    0.0707   -1.9388    0.2551 C   0  0  0  0  0  0  0  0  0  0  0  0
    1.3491   -1.8593   -0.3994 C   0  0  0  0  0  0  0  0  0  0  0  0
    0.5990   -0.1562   -0.7662 C   0  0  0  0  0  0  0  0  0  0  0  0
    2.3375    0.1724   -0.2209 C   0  0  0  0  0  0  0  0  0  0  0  0
    1.3878    0.9089    0.5986 C   0  0  0  0  0  0  0  0  0  0  0  0
  1  2  1  0  0  0  0
  1 11  1  0  0  0  0
  2  3  1  0  0  0  0
  3  4  1  0  0  0  0
  3  5  1  0  0  0  0
  4  5  1  0  0  0  0
  5  6  1  0  0  0  0
  6  7  1  0  0  0  0
  6  8  1  0  0  0  0
  7  8  1  0  0  0  0
  8  9  1  0  0  0  0
  9 10  1  0  0  0  0
  9 11  1  0  0  0  0
 10 11  1  0  0  0  0
M  END
