
 OpenBabel03222517353D

  9 10  0  0  0  0  0  0  0  0999 V2000
    1.4595   -1.5014   -0.4229 C   0  0  0  0  0  0  0  0  0  0  0  0
    2.1943   -0.2279   -0.0184 C   0  0  0  0  0  0  0  0  0  0  0  0
    1.2374    0.9032    0.3648 C   0  0  0  0  0  0  0  0  0  0  0  0
    0.0180    0.9234   -0.5753 C   0  0  0  0  0  0  0  0  0  0  0  0
   -1.0488    2.0618   -0.2208 C   0  0  0  0  0  0  0  0  0  0  0  0
   -1.6775    0.8743    0.6012 C   0  0  0  0  0  0  0  0  0  0  0  0
   -1.1616   -0.1068   -0.4488 C   0  0  0  0  0  0  0  0  0  0  0  0
   -1.0076   -1.5693   -0.0309 C   0  0  0  0  0  0  0  0  0  0  0  0
    0.3570   -1.8647    0.5754 C   0  0  0  0  0  0  0  0  0  0  0  0
  1  2  1  0  0  0  0
  1  9  1  0  0  0  0
  2  3  1  0  0  0  0
  3  4  1  0  0  0  0
  4  5  1  0  0  0  0
  5  6  1  0  0  0  0
  5  7  1  0  0  0  0
  6  7  1  0  0  0  0
  7  8  1  0  0  0  0
  8  9  1  0  0  0  0
M  END
