
 OpenBabel03222517363D

 10 12  0  0  0  0  0  0  0  0999 V2000
    1.6389   -1.3447   -0.7061 C   0  0  0  0  0  0  0  0  0  0  0  0
    2.2552   -0.1553    0.0953 C   0  0  0  0  0  0  0  0  0  0  0  0
    1.2220    0.7755    0.8838 C   0  0  0  0  0  0  0  0  0  0  0  0
   -0.1922    0.4474    0.4987 C   0  0  0  0  0  0  0  0  0  0  0  0
   -1.1202   -1.0733    0.9841 C   0  0  0  0  0  0  0  0  0  0  0  0
   -0.9638   -1.5074   -0.4069 C   0  0  0  0  0  0  0  0  0  0  0  0
    0.5285   -1.9209    0.0948 C   0  0  0  0  0  0  0  0  0  0  0  0
   -1.8888   -0.0029   -0.6946 C   0  0  0  0  0  0  0  0  0  0  0  0
   -2.4746    0.8749    0.6669 C   0  0  0  0  0  0  0  0  0  0  0  0
   -1.3005    1.1936   -0.0653 C   0  0  0  0  0  0  0  0  0  0  0  0
  1  2  1  0  0  0  0
  1  7  1  0  0  0  0
  2  3  1  0  0  0  0
  3  4  1  0  0  0  0
  4  5  1  0  0  0  0
  4 10  1  0  0  0  0
  5  6  1  0  0  0  0
  6  7  1  0  0  0  0
  6  8  1  0  0  0  0
  8  9  1  0  0  0  0
  8 10  1  0  0  0  0
  9 10  1  0  0  0  0
M  END
