
 OpenBabel03222517353D

 10 13  0  0  0  0  0  0  0  0999 V2000
    1.4820    0.9364    0.5340 C   0  0  0  0  0  0  0  0  0  0  0  0
    0.4489    1.7410   -0.1463 C   0  0  0  0  0  0  0  0  0  0  0  0
   -1.1013    1.3447    0.7061 C   0  0  0  0  0  0  0  0  0  0  0  0
   -1.5701   -0.3496    0.1800 C   0  0  0  0  0  0  0  0  0  0  0  0
   -1.1885   -1.7412    0.7263 C   0  0  0  0  0  0  0  0  0  0  0  0
    0.3183   -1.5789    0.2326 C   0  0  0  0  0  0  0  0  0  0  0  0
    0.5290   -0.1369    0.0748 C   0  0  0  0  0  0  0  0  0  0  0  0
   -0.6624    0.5074   -1.4856 C   0  0  0  0  0  0  0  0  0  0  0  0
    0.6885    0.8088   -1.4159 C   0  0  0  0  0  0  0  0  0  0  0  0
   -0.0297   -0.8547   -0.9784 C   0  0  0  0  0  0  0  0  0  0  0  0
  1  2  1  0  0  0  0
  1  7  1  0  0  0  0
  2  3  1  0  0  0  0
  2  9  1  0  0  0  0
  3  4  1  0  0  0  0
  4  5  1  0  0  0  0
  4 10  1  0  0  0  0
  5  6  1  0  0  0  0
  6  7  1  0  0  0  0
  6 10  1  0  0  0  0
  7  8  1  0  0  0  0
  8  9  1  0  0  0  0
  9 10  1  0  0  0  0
M  END
