
 OpenBabel03222517383D

 15 18  0  0  0  0  0  0  0  0999 V2000
    1.2881   -0.3145    0.0404 C   0  0  0  0  0  0  0  0  0  0  0  0
    0.7244   -0.8517    1.3523 C   0  0  0  0  0  0  0  0  0  0  0  0
    1.0985    0.1211    2.4625 C   0  0  0  0  0  0  0  0  0  0  0  0
    0.4320    1.4912    2.2316 C   0  0  0  0  0  0  0  0  0  0  0  0
    0.4398    1.8136    0.6302 C   0  0  0  0  0  0  0  0  0  0  0  0
    0.2105    0.6585   -0.4411 C   0  0  0  0  0  0  0  0  0  0  0  0
   -0.1206    3.1905    0.6369 C   0  0  0  0  0  0  0  0  0  0  0  0
    0.5739    3.7127    1.8975 C   0  0  0  0  0  0  0  0  0  0  0  0
   -0.7339    4.5212    2.7830 C   0  0  0  0  0  0  0  0  0  0  0  0
   -0.3854    5.9163    2.6578 C   0  0  0  0  0  0  0  0  0  0  0  0
    1.0800    5.6746    3.1298 C   0  0  0  0  0  0  0  0  0  0  0  0
    1.7734    5.7812    1.7099 C   0  0  0  0  0  0  0  0  0  0  0  0
    2.0399    4.3978    1.5710 C   0  0  0  0  0  0  0  0  0  0  0  0
    1.2169    3.9459    3.9477 C   0  0  0  0  0  0  0  0  0  0  0  0
    1.2030    2.7244    2.8512 C   0  0  0  0  0  0  0  0  0  0  0  0
  1  2  1  0  0  0  0
  1  6  1  0  0  0  0
  2  3  1  0  0  0  0
  3  4  1  0  0  0  0
  4  5  1  0  0  0  0
  4 15  1  0  0  0  0
  5  6  1  0  0  0  0
  5  7  1  0  0  0  0
  7  8  1  0  0  0  0
  8  9  1  0  0  0  0
  8 13  1  0  0  0  0
  8 15  1  0  0  0  0
  9 10  1  0  0  0  0
 10 11  1  0  0  0  0
 11 12  1  0  0  0  0
 11 14  1  0  0  0  0
 12 13  1  0  0  0  0
 14 15  1  0  0  0  0
M  END
