
 OpenBabel03222517353D

 10 12  0  0  0  0  0  0  0  0999 V2000
   -2.3743   -0.2427    0.0003 C   0  0  0  0  0  0  0  0  0  0  0  0
   -1.3596   -1.3666    0.3101 C   0  0  0  0  0  0  0  0  0  0  0  0
    0.0452   -1.2092   -0.4007 C   0  0  0  0  0  0  0  0  0  0  0  0
    0.5841    0.2154   -0.1592 C   0  0  0  0  0  0  0  0  0  0  0  0
    1.7415    0.5389    0.6061 C   0  0  0  0  0  0  0  0  0  0  0  0
    1.6114    1.1750   -0.8788 C   0  0  0  0  0  0  0  0  0  0  0  0
    0.5306    2.2373   -1.7721 C   0  0  0  0  0  0  0  0  0  0  0  0
   -0.4985    1.1736   -1.8730 C   0  0  0  0  0  0  0  0  0  0  0  0
   -0.5411    1.1535   -0.3151 C   0  0  0  0  0  0  0  0  0  0  0  0
   -1.7620    1.0393    0.4371 C   0  0  0  0  0  0  0  0  0  0  0  0
  1  2  1  0  0  0  0
  1 10  1  0  0  0  0
  2  3  1  0  0  0  0
  3  4  1  0  0  0  0
  4  5  1  0  0  0  0
  4  6  1  0  0  0  0
  4  9  1  0  0  0  0
  5  6  1  0  0  0  0
  6  7  1  0  0  0  0
  7  8  1  0  0  0  0
  8  9  1  0  0  0  0
  9 10  1  0  0  0  0
M  END
