
 OpenBabel03222517363D

 12 14  0  0  0  0  0  0  0  0999 V2000
   -2.9793   -1.0487    0.1502 C   0  0  0  0  0  0  0  0  0  0  0  0
   -1.9414   -2.0087   -0.4015 C   0  0  0  0  0  0  0  0  0  0  0  0
   -0.7158   -1.4528    0.2853 C   0  0  0  0  0  0  0  0  0  0  0  0
    0.5601   -1.9830   -0.3308 C   0  0  0  0  0  0  0  0  0  0  0  0
    1.6656   -1.2129    0.3307 C   0  0  0  0  0  0  0  0  0  0  0  0
    1.6107    0.1676   -0.2854 C   0  0  0  0  0  0  0  0  0  0  0  0
    2.5572    1.1243    0.4015 C   0  0  0  0  0  0  0  0  0  0  0  0
    2.0167    2.4307   -0.1500 C   0  0  0  0  0  0  0  0  0  0  0  0
    0.5660    2.2773    0.3292 C   0  0  0  0  0  0  0  0  0  0  0  0
    0.2163    0.9099   -0.3117 C   0  0  0  0  0  0  0  0  0  0  0  0
   -0.9285    0.1126    0.3116 C   0  0  0  0  0  0  0  0  0  0  0  0
   -2.3323    0.2587   -0.3291 C   0  0  0  0  0  0  0  0  0  0  0  0
  1  2  1  0  0  0  0
  1 12  1  0  0  0  0
  2  3  1  0  0  0  0
  3  4  1  0  0  0  0
  3 11  1  0  0  0  0
  4  5  1  0  0  0  0
  5  6  1  0  0  0  0
  6  7  1  0  0  0  0
  6 10  1  0  0  0  0
  7  8  1  0  0  0  0
  8  9  1  0  0  0  0
  9 10  1  0  0  0  0
 10 11  1  0  0  0  0
 11 12  1  0  0  0  0
M  END
