
 OpenBabel03222517383D

 14 19  0  0  0  0  0  0  0  0999 V2000
   -0.8729    2.0561    0.3092 C   0  0  0  0  0  0  0  0  0  0  0  0
    0.5542    2.0075   -0.1126 C   0  0  0  0  0  0  0  0  0  0  0  0
    1.3286    2.1142    1.0516 C   0  0  0  0  0  0  0  0  0  0  0  0
    0.8864    0.8869    0.4120 C   0  0  0  0  0  0  0  0  0  0  0  0
   -0.8451   -0.4545    0.9146 C   0  0  0  0  0  0  0  0  0  0  0  0
   -0.9361   -2.0972   -0.1770 C   0  0  0  0  0  0  0  0  0  0  0  0
    0.7398   -2.0820   -0.0706 C   0  0  0  0  0  0  0  0  0  0  0  0
    1.7801   -0.3932    0.5757 C   0  0  0  0  0  0  0  0  0  0  0  0
    1.5419    0.1740   -0.6422 C   0  0  0  0  0  0  0  0  0  0  0  0
    0.5066   -0.6701   -0.2539 C   0  0  0  0  0  0  0  0  0  0  0  0
   -0.9813    0.8073   -0.5512 C   0  0  0  0  0  0  0  0  0  0  0  0
   -2.3718    0.5259    0.0131 C   0  0  0  0  0  0  0  0  0  0  0  0
   -1.7534   -0.7421   -0.4083 C   0  0  0  0  0  0  0  0  0  0  0  0
   -0.0116   -1.3717   -1.1952 C   0  0  0  0  0  0  0  0  0  0  0  0
  1  2  1  0  0  0  0
  1 11  1  0  0  0  0
  2  3  1  0  0  0  0
  2  9  1  0  0  0  0
  3  4  1  0  0  0  0
  4  5  1  0  0  0  0
  4  8  1  0  0  0  0
  5  6  1  0  0  0  0
  5 13  1  0  0  0  0
  6  7  1  0  0  0  0
  7  8  1  0  0  0  0
  7 14  1  0  0  0  0
  8  9  1  0  0  0  0
  9 10  1  0  0  0  0
 10 11  1  0  0  0  0
 10 14  1  0  0  0  0
 11 12  1  0  0  0  0
 12 13  1  0  0  0  0
 13 14  1  0  0  0  0
M  END
