
 OpenBabel03222517353D

 10 12  0  0  0  0  0  0  0  0999 V2000
   -2.3658    0.1648    0.0638 C   0  0  0  0  0  0  0  0  0  0  0  0
   -1.4903    1.4106   -0.1249 C   0  0  0  0  0  0  0  0  0  0  0  0
   -0.1554    1.4978    0.7005 C   0  0  0  0  0  0  0  0  0  0  0  0
    0.7370    0.1988    0.6393 C   0  0  0  0  0  0  0  0  0  0  0  0
    2.1883   -0.2146    1.5201 C   0  0  0  0  0  0  0  0  0  0  0  0
    2.1344    0.2632    0.1565 C   0  0  0  0  0  0  0  0  0  0  0  0
    1.1451   -0.3851   -0.5822 C   0  0  0  0  0  0  0  0  0  0  0  0
    0.1406   -1.0867    1.0924 C   0  0  0  0  0  0  0  0  0  0  0  0
   -0.2912   -1.2574   -0.2144 C   0  0  0  0  0  0  0  0  0  0  0  0
   -1.7189   -1.0673   -0.5270 C   0  0  0  0  0  0  0  0  0  0  0  0
  1  2  1  0  0  0  0
  1 10  1  0  0  0  0
  2  3  1  0  0  0  0
  3  4  1  0  0  0  0
  4  5  1  0  0  0  0
  4  7  1  0  0  0  0
  4  9  1  0  0  0  0
  5  6  1  0  0  0  0
  6  7  1  0  0  0  0
  7  8  1  0  0  0  0
  8  9  1  0  0  0  0
  9 10  1  0  0  0  0
M  END
