
 OpenBabel03222517363D

 12 15  0  0  0  0  0  0  0  0999 V2000
   -2.0054   -0.0735   -1.0623 C   0  0  0  0  0  0  0  0  0  0  0  0
   -1.5054   -1.5894   -0.3273 C   0  0  0  0  0  0  0  0  0  0  0  0
   -0.0297   -1.4123    0.8431 C   0  0  0  0  0  0  0  0  0  0  0  0
    0.4937   -0.0782    0.0939 C   0  0  0  0  0  0  0  0  0  0  0  0
   -1.1740    1.2604    0.3401 C   0  0  0  0  0  0  0  0  0  0  0  0
   -0.8616    1.4754   -0.9337 C   0  0  0  0  0  0  0  0  0  0  0  0
    0.4249    1.7836    0.5320 C   0  0  0  0  0  0  0  0  0  0  0  0
    1.5969    1.7960   -0.3372 C   0  0  0  0  0  0  0  0  0  0  0  0
    1.6100    0.3746   -0.6892 C   0  0  0  0  0  0  0  0  0  0  0  0
    0.1950   -0.3671   -0.7598 C   0  0  0  0  0  0  0  0  0  0  0  0
   -0.8157   -0.3734    1.2685 C   0  0  0  0  0  0  0  0  0  0  0  0
    0.5143    0.1221    1.6151 C   0  0  0  0  0  0  0  0  0  0  0  0
  1  2  1  0  0  0  0
  1  6  1  0  0  0  0
  2  3  1  0  0  0  0
  3  4  1  0  0  0  0
  3 12  1  0  0  0  0
  4  5  1  0  0  0  0
  4  9  1  0  0  0  0
  5  6  1  0  0  0  0
  6  7  1  0  0  0  0
  7  8  1  0  0  0  0
  7 12  1  0  0  0  0
  8  9  1  0  0  0  0
  9 10  1  0  0  0  0
 10 11  1  0  0  0  0
 11 12  1  0  0  0  0
M  END
