
 OpenBabel03222517373D

 11 15  0  0  0  0  0  0  0  0999 V2000
   -0.7913    0.8272    1.0559 C   0  0  0  0  0  0  0  0  0  0  0  0
    0.7425    0.8128    1.1946 C   0  0  0  0  0  0  0  0  0  0  0  0
    1.3310    1.3854   -0.1210 C   0  0  0  0  0  0  0  0  0  0  0  0
    0.6758    0.6963   -1.3043 C   0  0  0  0  0  0  0  0  0  0  0  0
   -0.8587    0.9302   -1.4048 C   0  0  0  0  0  0  0  0  0  0  0  0
   -1.2677    0.0399   -0.2644 C   0  0  0  0  0  0  0  0  0  0  0  0
   -0.4244   -1.2799   -0.6531 C   0  0  0  0  0  0  0  0  0  0  0  0
    0.5532   -1.6220   -2.1602 C   0  0  0  0  0  0  0  0  0  0  0  0
    0.8804   -0.7755   -1.0062 C   0  0  0  0  0  0  0  0  0  0  0  0
    0.6353   -1.5057    0.3876 C   0  0  0  0  0  0  0  0  0  0  0  0
    1.1108   -0.6495    1.4751 C   0  0  0  0  0  0  0  0  0  0  0  0
  1  2  1  0  0  0  0
  1  6  1  0  0  0  0
  2  3  1  0  0  0  0
  2 11  1  0  0  0  0
  3  4  1  0  0  0  0
  4  5  1  0  0  0  0
  4  9  1  0  0  0  0
  5  6  1  0  0  0  0
  6  7  1  0  0  0  0
  7  8  1  0  0  0  0
  7  9  1  0  0  0  0
  7 10  1  0  0  0  0
  8  9  1  0  0  0  0
  9 10  1  0  0  0  0
 10 11  1  0  0  0  0
M  END
