
 OpenBabel03222517373D

 14 17  0  0  0  0  0  0  0  0999 V2000
   -1.6287    3.2443    0.0717 C   0  0  0  0  0  0  0  0  0  0  0  0
   -0.1922    3.5133   -0.2958 C   0  0  0  0  0  0  0  0  0  0  0  0
    0.3277    2.1826    0.1352 C   0  0  0  0  0  0  0  0  0  0  0  0
    1.3335    1.5323   -0.8187 C   0  0  0  0  0  0  0  0  0  0  0  0
    1.2173    0.3248   -0.0382 C   0  0  0  0  0  0  0  0  0  0  0  0
    2.0247   -0.9053   -0.1391 C   0  0  0  0  0  0  0  0  0  0  0  0
    1.0002   -1.6988    0.7061 C   0  0  0  0  0  0  0  0  0  0  0  0
    1.1636   -3.0498    0.1283 C   0  0  0  0  0  0  0  0  0  0  0  0
   -0.1899   -3.6430    0.3432 C   0  0  0  0  0  0  0  0  0  0  0  0
   -1.2104   -2.5525    0.0235 C   0  0  0  0  0  0  0  0  0  0  0  0
   -0.4992   -1.2955    0.5177 C   0  0  0  0  0  0  0  0  0  0  0  0
   -0.2723   -0.0987   -0.3329 C   0  0  0  0  0  0  0  0  0  0  0  0
   -0.9169    1.1639    0.1383 C   0  0  0  0  0  0  0  0  0  0  0  0
   -1.8186    1.9566   -0.7560 C   0  0  0  0  0  0  0  0  0  0  0  0
  1  2  1  0  0  0  0
  1 14  1  0  0  0  0
  2  3  1  0  0  0  0
  3  4  1  0  0  0  0
  3 13  1  0  0  0  0
  4  5  1  0  0  0  0
  5  6  1  0  0  0  0
  5 11  1  0  0  0  0
  6  7  1  0  0  0  0
  7  8  1  0  0  0  0
  8  9  1  0  0  0  0
  8 10  1  0  0  0  0
  9 10  1  0  0  0  0
 10 11  1  0  0  0  0
 11 12  1  0  0  0  0
 12 13  1  0  0  0  0
 13 14  1  0  0  0  0
M  END
