
 OpenBabel03222517353D

  9 10  0  0  0  0  0  0  0  0999 V2000
    1.4401   -1.4026   -0.4609 C   0  0  0  0  0  0  0  0  0  0  0  0
    2.1668   -0.1417   -0.0079 C   0  0  0  0  0  0  0  0  0  0  0  0
    1.2184    0.9706    0.4523 C   0  0  0  0  0  0  0  0  0  0  0  0
   -0.0267    1.0592   -0.4479 C   0  0  0  0  0  0  0  0  0  0  0  0
   -1.1336    1.9974    0.1153 C   0  0  0  0  0  0  0  0  0  0  0  0
   -1.7712    0.7451    0.7560 C   0  0  0  0  0  0  0  0  0  0  0  0
   -1.1743   -0.0686   -0.4160 C   0  0  0  0  0  0  0  0  0  0  0  0
   -1.0039   -1.5499   -0.0747 C   0  0  0  0  0  0  0  0  0  0  0  0
    0.3589   -1.8242    0.5363 C   0  0  0  0  0  0  0  0  0  0  0  0
  1  2  1  0  0  0  0
  1  9  1  0  0  0  0
  2  3  1  0  0  0  0
  3  4  1  0  0  0  0
  4  5  1  0  0  0  0
  4  7  1  0  0  0  0
  5  6  1  0  0  0  0
  6  7  1  0  0  0  0
  7  8  1  0  0  0  0
  8  9  1  0  0  0  0
M  END
