
 OpenBabel03222517383D

 14 17  0  0  0  0  0  0  0  0999 V2000
   -2.6922    0.6173   -0.3850 C   0  0  0  0  0  0  0  0  0  0  0  0
   -2.6485   -0.9072   -0.4687 C   0  0  0  0  0  0  0  0  0  0  0  0
   -1.2227   -1.4523   -0.4562 C   0  0  0  0  0  0  0  0  0  0  0  0
   -0.3508   -0.9555    0.8278 C   0  0  0  0  0  0  0  0  0  0  0  0
   -0.4832    0.4558    0.7724 C   0  0  0  0  0  0  0  0  0  0  0  0
   -1.8425    1.1279    0.7437 C   0  0  0  0  0  0  0  0  0  0  0  0
    0.4778    0.5639   -0.5218 C   0  0  0  0  0  0  0  0  0  0  0  0
    1.7171    1.2869   -0.7271 C   0  0  0  0  0  0  0  0  0  0  0  0
    2.5970    0.3949    0.3375 C   0  0  0  0  0  0  0  0  0  0  0  0
    3.7384   -0.7305   -0.1670 C   0  0  0  0  0  0  0  0  0  0  0  0
    3.4622   -2.1597    0.1054 C   0  0  0  0  0  0  0  0  0  0  0  0
    1.9684   -2.0499    0.3229 C   0  0  0  0  0  0  0  0  0  0  0  0
    1.2786   -1.1423   -0.9171 C   0  0  0  0  0  0  0  0  0  0  0  0
    1.4617   -0.8532    1.0453 C   0  0  0  0  0  0  0  0  0  0  0  0
  1  2  1  0  0  0  0
  1  6  1  0  0  0  0
  2  3  1  0  0  0  0
  3  4  1  0  0  0  0
  4  5  1  0  0  0  0
  4 14  1  0  0  0  0
  5  6  1  0  0  0  0
  5  7  1  0  0  0  0
  7  8  1  0  0  0  0
  8  9  1  0  0  0  0
  8 14  1  0  0  0  0
  9 10  1  0  0  0  0
 10 11  1  0  0  0  0
 10 13  1  0  0  0  0
 10 14  1  0  0  0  0
 11 12  1  0  0  0  0
 12 13  1  0  0  0  0
M  END
