
 OpenBabel03222517373D

 13 15  0  0  0  0  0  0  0  0999 V2000
   -2.4728   -0.8327   -0.6023 C   0  0  0  0  0  0  0  0  0  0  0  0
   -2.5800    0.6726   -0.3648 C   0  0  0  0  0  0  0  0  0  0  0  0
   -1.7457    1.1614    0.8251 C   0  0  0  0  0  0  0  0  0  0  0  0
   -0.2840    0.6693    0.8127 C   0  0  0  0  0  0  0  0  0  0  0  0
    0.5971    1.6420   -0.0059 C   0  0  0  0  0  0  0  0  0  0  0  0
    1.8030    1.1936   -0.8250 C   0  0  0  0  0  0  0  0  0  0  0  0
    2.6326    0.0922   -0.2204 C   0  0  0  0  0  0  0  0  0  0  0  0
    2.0546   -1.2825   -0.2728 C   0  0  0  0  0  0  0  0  0  0  0  0
    1.0539   -1.5124    0.8292 C   0  0  0  0  0  0  0  0  0  0  0  0
   -0.2942   -0.8532    0.5904 C   0  0  0  0  0  0  0  0  0  0  0  0
   -1.0147   -1.2746   -0.6947 C   0  0  0  0  0  0  0  0  0  0  0  0
    3.6080    0.5259    0.8492 C   0  0  0  0  0  0  0  0  0  0  0  0
    4.1237    0.0923   -0.5125 C   0  0  0  0  0  0  0  0  0  0  0  0
  1  2  1  0  0  0  0
  1 11  1  0  0  0  0
  2  3  1  0  0  0  0
  3  4  1  0  0  0  0
  4  5  1  0  0  0  0
  4 10  1  0  0  0  0
  5  6  1  0  0  0  0
  6  7  1  0  0  0  0
  7  8  1  0  0  0  0
  7 12  1  0  0  0  0
  7 13  1  0  0  0  0
  8  9  1  0  0  0  0
  9 10  1  0  0  0  0
 10 11  1  0  0  0  0
 12 13  1  0  0  0  0
M  END
