
 OpenBabel03222517363D

 12 14  0  0  0  0  0  0  0  0999 V2000
   -2.9708   -1.2075    0.2706 C   0  0  0  0  0  0  0  0  0  0  0  0
   -2.1434   -2.4016   -0.2499 C   0  0  0  0  0  0  0  0  0  0  0  0
   -0.7583   -2.3629    0.4251 C   0  0  0  0  0  0  0  0  0  0  0  0
   -0.1262   -1.1340   -0.1877 C   0  0  0  0  0  0  0  0  0  0  0  0
   -1.0253    0.1439    0.2327 C   0  0  0  0  0  0  0  0  0  0  0  0
   -2.3903    0.0654   -0.3660 C   0  0  0  0  0  0  0  0  0  0  0  0
    0.1522    0.9422   -0.3436 C   0  0  0  0  0  0  0  0  0  0  0  0
    0.5569    2.3267    0.0253 C   0  0  0  0  0  0  0  0  0  0  0  0
    2.0069    2.4265   -0.4755 C   0  0  0  0  0  0  0  0  0  0  0  0
    2.8294    1.3200    0.2191 C   0  0  0  0  0  0  0  0  0  0  0  0
    2.4116   -0.0492   -0.3544 C   0  0  0  0  0  0  0  0  0  0  0  0
    1.0495   -0.2593    0.2676 C   0  0  0  0  0  0  0  0  0  0  0  0
  1  2  1  0  0  0  0
  1  6  1  0  0  0  0
  2  3  1  0  0  0  0
  3  4  1  0  0  0  0
  4  5  1  0  0  0  0
  4 12  1  0  0  0  0
  5  6  1  0  0  0  0
  5  7  1  0  0  0  0
  7  8  1  0  0  0  0
  8  9  1  0  0  0  0
  8 12  1  0  0  0  0
  9 10  1  0  0  0  0
 10 11  1  0  0  0  0
 11 12  1  0  0  0  0
M  END
