
 OpenBabel03222517363D

 10 12  0  0  0  0  0  0  0  0999 V2000
    1.5312   -0.0097    0.3888 C   0  0  0  0  0  0  0  0  0  0  0  0
    0.8426   -0.5456    1.6499 C   0  0  0  0  0  0  0  0  0  0  0  0
    1.0321    0.5927    2.6060 C   0  0  0  0  0  0  0  0  0  0  0  0
    0.1696    1.7103    2.0516 C   0  0  0  0  0  0  0  0  0  0  0  0
    0.4614    2.3073    0.6232 C   0  0  0  0  0  0  0  0  0  0  0  0
    0.5648    0.9610   -0.2703 C   0  0  0  0  0  0  0  0  0  0  0  0
    1.1145    3.5549    1.5056 C   0  0  0  0  0  0  0  0  0  0  0  0
    0.0902    4.7174    1.9257 C   0  0  0  0  0  0  0  0  0  0  0  0
   -0.3960    3.8284    3.0944 C   0  0  0  0  0  0  0  0  0  0  0  0
    0.7071    2.8791    2.7866 C   0  0  0  0  0  0  0  0  0  0  0  0
  1  2  1  0  0  0  0
  1  6  1  0  0  0  0
  2  3  1  0  0  0  0
  3  4  1  0  0  0  0
  4  5  1  0  0  0  0
  4  8  1  0  0  0  0
  5  6  1  0  0  0  0
  5  7  1  0  0  0  0
  7  8  1  0  0  0  0
  8  9  1  0  0  0  0
  8 10  1  0  0  0  0
  9 10  1  0  0  0  0
M  END
