
 OpenBabel03222517363D

 11 13  0  0  0  0  0  0  0  0999 V2000
   -1.7361    0.7738   -1.0316 C   0  0  0  0  0  0  0  0  0  0  0  0
   -1.2075   -0.6332   -0.8658 C   0  0  0  0  0  0  0  0  0  0  0  0
    0.5748    0.0586   -0.4585 C   0  0  0  0  0  0  0  0  0  0  0  0
    2.0299    0.6111    0.9646 C   0  0  0  0  0  0  0  0  0  0  0  0
    1.7932   -0.4369    0.1539 C   0  0  0  0  0  0  0  0  0  0  0  0
    1.5790   -1.8024    0.5189 C   0  0  0  0  0  0  0  0  0  0  0  0
    0.3420   -1.4968    1.4149 C   0  0  0  0  0  0  0  0  0  0  0  0
   -0.4272   -0.0127    1.1599 C   0  0  0  0  0  0  0  0  0  0  0  0
    0.7658    0.6822    1.5957 C   0  0  0  0  0  0  0  0  0  0  0  0
   -0.2453    1.1477   -0.1054 C   0  0  0  0  0  0  0  0  0  0  0  0
   -0.3302    1.3446   -1.5663 C   0  0  0  0  0  0  0  0  0  0  0  0
  1  2  1  0  0  0  0
  1  9  1  0  0  0  0
  2  3  1  0  0  0  0
  3  4  1  0  0  0  0
  3  8  1  0  0  0  0
  4  5  1  0  0  0  0
  5  6  1  0  0  0  0
  5 11  1  0  0  0  0
  6  7  1  0  0  0  0
  7  8  1  0  0  0  0
  8  9  1  0  0  0  0
  8 10  1  0  0  0  0
 10 11  1  0  0  0  0
M  END
