
 OpenBabel03222517363D

 11 13  0  0  0  0  0  0  0  0999 V2000
    2.6066   -0.4055   -0.4492 C   0  0  0  0  0  0  0  0  0  0  0  0
    1.5584   -1.3628    0.2972 C   0  0  0  0  0  0  0  0  0  0  0  0
    0.3881   -0.4509    0.8543 C   0  0  0  0  0  0  0  0  0  0  0  0
   -0.9433   -0.8083    1.6306 C   0  0  0  0  0  0  0  0  0  0  0  0
   -1.9519    0.3299    1.2823 C   0  0  0  0  0  0  0  0  0  0  0  0
   -2.2670    0.1486   -0.1968 C   0  0  0  0  0  0  0  0  0  0  0  0
   -1.2607    1.0676   -0.9433 C   0  0  0  0  0  0  0  0  0  0  0  0
   -0.2609    2.2408   -0.5314 C   0  0  0  0  0  0  0  0  0  0  0  0
    0.9675    1.3200   -0.7438 C   0  0  0  0  0  0  0  0  0  0  0  0
    1.9136    0.4962   -1.5529 C   0  0  0  0  0  0  0  0  0  0  0  0
   -0.0517    0.2042   -0.4668 C   0  0  0  0  0  0  0  0  0  0  0  0
  1  2  1  0  0  0  0
  1 10  1  0  0  0  0
  2  3  1  0  0  0  0
  3  4  1  0  0  0  0
  4  5  1  0  0  0  0
  4  9  1  0  0  0  0
  4 11  1  0  0  0  0
  5  6  1  0  0  0  0
  6  7  1  0  0  0  0
  7  8  1  0  0  0  0
  7 11  1  0  0  0  0
  8  9  1  0  0  0  0
  9 10  1  0  0  0  0
M  END
