
 OpenBabel03222517353D

 11 13  0  0  0  0  0  0  0  0999 V2000
    2.7722    0.1366   -0.2200 C   0  0  0  0  0  0  0  0  0  0  0  0
    2.3128   -1.3085   -0.1384 C   0  0  0  0  0  0  0  0  0  0  0  0
    1.3070   -1.4959    0.9965 C   0  0  0  0  0  0  0  0  0  0  0  0
   -0.0105   -0.7591    0.7714 C   0  0  0  0  0  0  0  0  0  0  0  0
   -0.4577   -0.6571   -0.7164 C   0  0  0  0  0  0  0  0  0  0  0  0
   -1.9714   -0.4912   -0.8772 C   0  0  0  0  0  0  0  0  0  0  0  0
   -2.4316    0.7932   -0.1776 C   0  0  0  0  0  0  0  0  0  0  0  0
   -1.5488    1.2048    1.0142 C   0  0  0  0  0  0  0  0  0  0  0  0
   -0.0870    0.8043    0.7698 C   0  0  0  0  0  0  0  0  0  0  0  0
    0.3141    0.7450   -0.7384 C   0  0  0  0  0  0  0  0  0  0  0  0
    1.8016    1.0118   -1.0005 C   0  0  0  0  0  0  0  0  0  0  0  0
  1  2  1  0  0  0  0
  1 11  1  0  0  0  0
  2  3  1  0  0  0  0
  3  4  1  0  0  0  0
  4  5  1  0  0  0  0
  4  9  1  0  0  0  0
  5  6  1  0  0  0  0
  6  7  1  0  0  0  0
  6  8  1  0  0  0  0
  7  8  1  0  0  0  0
  8  9  1  0  0  0  0
  9 10  1  0  0  0  0
 10 11  1  0  0  0  0
M  END
