
 OpenBabel03222517373D

 11 14  0  0  0  0  0  0  0  0999 V2000
   -1.9244   -0.8575   -0.0459 C   0  0  0  0  0  0  0  0  0  0  0  0
   -1.9861    0.6795    0.0935 C   0  0  0  0  0  0  0  0  0  0  0  0
   -0.7427    1.4502    0.5994 C   0  0  0  0  0  0  0  0  0  0  0  0
    0.2144    1.6946   -0.5744 C   0  0  0  0  0  0  0  0  0  0  0  0
    0.8745    0.3482   -0.7110 C   0  0  0  0  0  0  0  0  0  0  0  0
    0.1452   -0.6585   -1.5839 C   0  0  0  0  0  0  0  0  0  0  0  0
   -0.6296   -1.5237   -0.5709 C   0  0  0  0  0  0  0  0  0  0  0  0
    0.3850   -1.6753    0.5700 C   0  0  0  0  0  0  0  0  0  0  0  0
    0.9302   -0.2772    0.6783 C   0  0  0  0  0  0  0  0  0  0  0  0
    0.1415    0.6555    1.5801 C   0  0  0  0  0  0  0  0  0  0  0  0
    2.2007    0.0939   -0.0452 C   0  0  0  0  0  0  0  0  0  0  0  0
  1  2  1  0  0  0  0
  1  7  1  0  0  0  0
  2  3  1  0  0  0  0
  3  4  1  0  0  0  0
  3 10  1  0  0  0  0
  4  5  1  0  0  0  0
  5  6  1  0  0  0  0
  5  9  1  0  0  0  0
  5 11  1  0  0  0  0
  6  7  1  0  0  0  0
  7  8  1  0  0  0  0
  8  9  1  0  0  0  0
  9 10  1  0  0  0  0
  9 11  1  0  0  0  0
M  END
