
 OpenBabel03222517363D

 10 13  0  0  0  0  0  0  0  0999 V2000
    0.8337   -0.4432    0.2842 C   0  0  0  0  0  0  0  0  0  0  0  0
    0.7092    0.2207    1.6562 C   0  0  0  0  0  0  0  0  0  0  0  0
    1.2712    1.5745    1.3938 C   0  0  0  0  0  0  0  0  0  0  0  0
    2.5413    1.4895    0.5423 C   0  0  0  0  0  0  0  0  0  0  0  0
    2.1528    1.5719   -1.0616 C   0  0  0  0  0  0  0  0  0  0  0  0
    2.1247    2.9544   -1.6000 C   0  0  0  0  0  0  0  0  0  0  0  0
    0.8635    3.0029   -0.7318 C   0  0  0  0  0  0  0  0  0  0  0  0
    0.1943    2.0738    0.3799 C   0  0  0  0  0  0  0  0  0  0  0  0
   -0.2593    0.4673   -0.2447 C   0  0  0  0  0  0  0  0  0  0  0  0
    0.8956    2.1859   -2.0024 C   0  0  0  0  0  0  0  0  0  0  0  0
  1  2  1  0  0  0  0
  1  9  1  0  0  0  0
  2  3  1  0  0  0  0
  3  4  1  0  0  0  0
  3  8  1  0  0  0  0
  4  5  1  0  0  0  0
  5  6  1  0  0  0  0
  5 10  1  0  0  0  0
  6  7  1  0  0  0  0
  6 10  1  0  0  0  0
  7  8  1  0  0  0  0
  7 10  1  0  0  0  0
  8  9  1  0  0  0  0
M  END
