
 OpenBabel03222517373D

 14 15  0  0  0  0  0  0  0  0999 V2000
    2.0759   -1.0064    0.7834 C   0  0  0  0  0  0  0  0  0  0  0  0
    2.6718    0.1932   -0.1369 C   0  0  0  0  0  0  0  0  0  0  0  0
    2.3651    1.6817    0.4032 C   0  0  0  0  0  0  0  0  0  0  0  0
    1.2476    2.4430   -0.3379 C   0  0  0  0  0  0  0  0  0  0  0  0
   -0.1110    2.4557    0.4117 C   0  0  0  0  0  0  0  0  0  0  0  0
   -1.3501    2.0717   -0.4482 C   0  0  0  0  0  0  0  0  0  0  0  0
   -2.4493    1.3570    0.4063 C   0  0  0  0  0  0  0  0  0  0  0  0
   -2.8705    0.0215   -0.2921 C   0  0  0  0  0  0  0  0  0  0  0  0
   -1.5760   -0.7479   -0.1421 C   0  0  0  0  0  0  0  0  0  0  0  0
   -1.1895   -2.2128   -0.3146 C   0  0  0  0  0  0  0  0  0  0  0  0
   -0.0374   -3.1365    0.0829 C   0  0  0  0  0  0  0  0  0  0  0  0
    1.4655   -2.5250    0.4709 C   0  0  0  0  0  0  0  0  0  0  0  0
   -0.4566   -0.1069   -1.0327 C   0  0  0  0  0  0  0  0  0  0  0  0
   -0.9241    1.2000   -1.6229 C   0  0  0  0  0  0  0  0  0  0  0  0
  1  2  1  0  0  0  0
  1 13  1  0  0  0  0
  2  3  1  0  0  0  0
  3  4  1  0  0  0  0
  4  5  1  0  0  0  0
  5  6  1  0  0  0  0
  6  7  1  0  0  0  0
  6 14  1  0  0  0  0
  7  8  1  0  0  0  0
  8  9  1  0  0  0  0
  9 10  1  0  0  0  0
  9 14  1  0  0  0  0
 10 11  1  0  0  0  0
 11 12  1  0  0  0  0
 12 13  1  0  0  0  0
M  END
