
 OpenBabel03222517373D

 13 16  0  0  0  0  0  0  0  0999 V2000
   -2.7223    0.2309    0.2967 C   0  0  0  0  0  0  0  0  0  0  0  0
   -2.1869   -0.7815   -0.7646 C   0  0  0  0  0  0  0  0  0  0  0  0
   -0.6869   -0.7523   -1.2550 C   0  0  0  0  0  0  0  0  0  0  0  0
   -0.2676    0.2219   -2.3841 C   0  0  0  0  0  0  0  0  0  0  0  0
    1.2923    0.4187   -2.6544 C   0  0  0  0  0  0  0  0  0  0  0  0
    2.2542    0.4661   -1.4807 C   0  0  0  0  0  0  0  0  0  0  0  0
    2.8565   -0.3520   -0.2974 C   0  0  0  0  0  0  0  0  0  0  0  0
    1.5124    0.1836   -0.2980 C   0  0  0  0  0  0  0  0  0  0  0  0
    1.3268    1.5733    0.2594 C   0  0  0  0  0  0  0  0  0  0  0  0
    0.1913    1.7676    1.1290 C   0  0  0  0  0  0  0  0  0  0  0  0
   -0.4215    0.3588    1.1198 C   0  0  0  0  0  0  0  0  0  0  0  0
   -1.8358    0.6754    1.4174 C   0  0  0  0  0  0  0  0  0  0  0  0
    0.1885   -0.5595   -0.0372 C   0  0  0  0  0  0  0  0  0  0  0  0
  1  2  1  0  0  0  0
  1 12  1  0  0  0  0
  2  3  1  0  0  0  0
  3  4  1  0  0  0  0
  3 11  1  0  0  0  0
  4  5  1  0  0  0  0
  5  6  1  0  0  0  0
  6  7  1  0  0  0  0
  6 10  1  0  0  0  0
  7  8  1  0  0  0  0
  8  9  1  0  0  0  0
  8 13  1  0  0  0  0
  9 10  1  0  0  0  0
 10 11  1  0  0  0  0
 11 12  1  0  0  0  0
 11 13  1  0  0  0  0
M  END
