
 OpenBabel03222517353D

  9 11  0  0  0  0  0  0  0  0999 V2000
   -1.7729    0.7240   -0.1013 C   0  0  0  0  0  0  0  0  0  0  0  0
   -1.7027   -0.7626    0.2215 C   0  0  0  0  0  0  0  0  0  0  0  0
   -0.3326   -1.1841   -0.3106 C   0  0  0  0  0  0  0  0  0  0  0  0
    0.5427    0.0220   -0.0549 C   0  0  0  0  0  0  0  0  0  0  0  0
   -0.3417    1.2383    0.1080 C   0  0  0  0  0  0  0  0  0  0  0  0
    1.9122    0.1599   -0.7556 C   0  0  0  0  0  0  0  0  0  0  0  0
    1.8212   -0.1240    0.6580 C   0  0  0  0  0  0  0  0  0  0  0  0
    2.3073   -1.0795    1.6485 C   0  0  0  0  0  0  0  0  0  0  0  0
    2.5229    0.4374    1.8214 C   0  0  0  0  0  0  0  0  0  0  0  0
  1  2  1  0  0  0  0
  1  5  1  0  0  0  0
  2  3  1  0  0  0  0
  3  4  1  0  0  0  0
  4  5  1  0  0  0  0
  4  6  1  0  0  0  0
  4  7  1  0  0  0  0
  6  7  1  0  0  0  0
  7  8  1  0  0  0  0
  7  9  1  0  0  0  0
  8  9  1  0  0  0  0
M  END
