
 OpenBabel03222517363D

 13 15  0  0  0  0  0  0  0  0999 V2000
    2.7268   -0.8812    0.3997 C   0  0  0  0  0  0  0  0  0  0  0  0
    3.1127    0.4184   -0.2701 C   0  0  0  0  0  0  0  0  0  0  0  0
    2.1018    1.4213    0.2004 C   0  0  0  0  0  0  0  0  0  0  0  0
    0.7080    1.0569   -0.3297 C   0  0  0  0  0  0  0  0  0  0  0  0
   -0.3049    1.8711    0.5249 C   0  0  0  0  0  0  0  0  0  0  0  0
   -1.5450    1.2235    0.0572 C   0  0  0  0  0  0  0  0  0  0  0  0
   -2.8924    1.2653    0.7353 C   0  0  0  0  0  0  0  0  0  0  0  0
   -3.5161    0.1292   -0.1044 C   0  0  0  0  0  0  0  0  0  0  0  0
   -2.5212   -1.0176    0.1146 C   0  0  0  0  0  0  0  0  0  0  0  0
   -1.2257   -0.2596    0.2906 C   0  0  0  0  0  0  0  0  0  0  0  0
    0.0295   -0.4585   -0.5236 C   0  0  0  0  0  0  0  0  0  0  0  0
    0.6474   -1.8555   -0.1875 C   0  0  0  0  0  0  0  0  0  0  0  0
    2.0803   -1.7892   -0.6346 C   0  0  0  0  0  0  0  0  0  0  0  0
  1  2  1  0  0  0  0
  1 13  1  0  0  0  0
  2  3  1  0  0  0  0
  3  4  1  0  0  0  0
  4  5  1  0  0  0  0
  4 12  1  0  0  0  0
  5  6  1  0  0  0  0
  6  7  1  0  0  0  0
  6 11  1  0  0  0  0
  7  8  1  0  0  0  0
  8  9  1  0  0  0  0
  9 10  1  0  0  0  0
 10 11  1  0  0  0  0
 11 12  1  0  0  0  0
 12 13  1  0  0  0  0
M  END
