
 OpenBabel03222517363D

 12 14  0  0  0  0  0  0  0  0999 V2000
    1.0577   -0.6471    0.0631 C   0  0  0  0  0  0  0  0  0  0  0  0
    1.5581   -2.0350    0.2029 C   0  0  0  0  0  0  0  0  0  0  0  0
    0.4260   -1.2565    0.5814 C   0  0  0  0  0  0  0  0  0  0  0  0
    0.7746    0.5034    1.6352 C   0  0  0  0  0  0  0  0  0  0  0  0
   -0.0701    1.7468    0.1603 C   0  0  0  0  0  0  0  0  0  0  0  0
    1.0079    2.6326   -0.0377 C   0  0  0  0  0  0  0  0  0  0  0  0
    0.6098    1.2957   -0.2925 C   0  0  0  0  0  0  0  0  0  0  0  0
   -1.0058    0.7326    1.1320 C   0  0  0  0  0  0  0  0  0  0  0  0
   -2.0712    0.6595    0.2567 C   0  0  0  0  0  0  0  0  0  0  0  0
   -1.1346   -0.3379   -0.0764 C   0  0  0  0  0  0  0  0  0  0  0  0
   -1.1420    0.2252   -0.7789 C   0  0  0  0  0  0  0  0  0  0  0  0
   -0.0065   -0.9460   -1.4309 C   0  0  0  0  0  0  0  0  0  0  0  0
  1  2  1  0  0  0  0
  1  7  1  0  0  0  0
  2  3  1  0  0  0  0
  3  4  1  0  0  0  0
  3  8  1  0  0  0  0
  4  5  1  0  0  0  0
  5  6  1  0  0  0  0
  6  7  1  0  0  0  0
  6  8  1  0  0  0  0
  8  9  1  0  0  0  0
  8 12  1  0  0  0  0
  9 10  1  0  0  0  0
 10 11  1  0  0  0  0
 11 12  1  0  0  0  0
M  END
