
 OpenBabel03222517353D

 10 12  0  0  0  0  0  0  0  0999 V2000
    1.4087    0.0206    0.5786 C   0  0  0  0  0  0  0  0  0  0  0  0
    2.0734   -1.1395    0.1126 C   0  0  0  0  0  0  0  0  0  0  0  0
    0.8420   -1.2365   -0.6831 C   0  0  0  0  0  0  0  0  0  0  0  0
   -0.0450   -0.7072   -1.8337 C   0  0  0  0  0  0  0  0  0  0  0  0
   -1.2347    0.0731   -2.2427 C   0  0  0  0  0  0  0  0  0  0  0  0
   -1.8999   -0.1165   -0.8720 C   0  0  0  0  0  0  0  0  0  0  0  0
   -0.7335   -0.2757    0.5766 C   0  0  0  0  0  0  0  0  0  0  0  0
   -1.1731    0.5086    1.6644 C   0  0  0  0  0  0  0  0  0  0  0  0
   -0.2432    1.3236    0.8403 C   0  0  0  0  0  0  0  0  0  0  0  0
    0.2536    0.5748   -0.9445 C   0  0  0  0  0  0  0  0  0  0  0  0
  1  2  1  0  0  0  0
  1 10  1  0  0  0  0
  2  3  1  0  0  0  0
  3  4  1  0  0  0  0
  3  9  1  0  0  0  0
  4  5  1  0  0  0  0
  5  6  1  0  0  0  0
  5  9  1  0  0  0  0
  6  7  1  0  0  0  0
  7  8  1  0  0  0  0
  8  9  1  0  0  0  0
  9 10  1  0  0  0  0
M  END
