
 OpenBabel03222517363D

 11 14  0  0  0  0  0  0  0  0999 V2000
    0.4437    2.5555   -0.3765 C   0  0  0  0  0  0  0  0  0  0  0  0
    1.5440    1.6716   -0.9960 C   0  0  0  0  0  0  0  0  0  0  0  0
    1.0022    0.4851   -0.0753 C   0  0  0  0  0  0  0  0  0  0  0  0
   -0.4199    1.2460   -0.5001 C   0  0  0  0  0  0  0  0  0  0  0  0
   -1.2676    0.4366    0.3886 C   0  0  0  0  0  0  0  0  0  0  0  0
   -0.7629    0.8404    1.7212 C   0  0  0  0  0  0  0  0  0  0  0  0
    0.4842    0.0599    1.3714 C   0  0  0  0  0  0  0  0  0  0  0  0
    0.2822   -1.4186    0.8645 C   0  0  0  0  0  0  0  0  0  0  0  0
    0.4196   -2.5348   -0.1805 C   0  0  0  0  0  0  0  0  0  0  0  0
   -1.1763   -2.4720   -0.3063 C   0  0  0  0  0  0  0  0  0  0  0  0
   -0.8121   -0.9573   -0.1825 C   0  0  0  0  0  0  0  0  0  0  0  0
  1  2  1  0  0  0  0
  1  6  1  0  0  0  0
  2  3  1  0  0  0  0
  3  4  1  0  0  0  0
  3  9  1  0  0  0  0
  4  5  1  0  0  0  0
  4 10  1  0  0  0  0
  5  6  1  0  0  0  0
  6  7  1  0  0  0  0
  7  8  1  0  0  0  0
  7 11  1  0  0  0  0
  8  9  1  0  0  0  0
  9 10  1  0  0  0  0
 10 11  1  0  0  0  0
M  END
