
 OpenBabel03222517363D

 11 13  0  0  0  0  0  0  0  0999 V2000
   -1.0112    0.3768    1.3751 C   0  0  0  0  0  0  0  0  0  0  0  0
   -0.7912    1.7554    1.2802 C   0  0  0  0  0  0  0  0  0  0  0  0
   -0.4830   -0.2104    1.3791 C   0  0  0  0  0  0  0  0  0  0  0  0
   -0.8314   -1.2722    0.1077 C   0  0  0  0  0  0  0  0  0  0  0  0
   -1.4294   -1.2045   -1.2241 C   0  0  0  0  0  0  0  0  0  0  0  0
   -0.9053    0.1762   -1.8478 C   0  0  0  0  0  0  0  0  0  0  0  0
    0.5997    0.5458   -1.1357 C   0  0  0  0  0  0  0  0  0  0  0  0
    1.9059    1.3362   -0.7870 C   0  0  0  0  0  0  0  0  0  0  0  0
    2.1670    0.0917    0.0040 C   0  0  0  0  0  0  0  0  0  0  0  0
    1.2465    0.1249    1.3454 C   0  0  0  0  0  0  0  0  0  0  0  0
    0.9380   -0.5934    0.1336 C   0  0  0  0  0  0  0  0  0  0  0  0
  1  2  1  0  0  0  0
  1  6  1  0  0  0  0
  2  3  1  0  0  0  0
  3  4  1  0  0  0  0
  4  5  1  0  0  0  0
  4  7  1  0  0  0  0
  4 11  1  0  0  0  0
  5  6  1  0  0  0  0
  7  8  1  0  0  0  0
  7 11  1  0  0  0  0
  8  9  1  0  0  0  0
  9 10  1  0  0  0  0
 10 11  1  0  0  0  0
M  END
