
 OpenBabel03222517383D

 14 17  0  0  0  0  0  0  0  0999 V2000
    2.8658   -0.7973    0.3324 C   0  0  0  0  0  0  0  0  0  0  0  0
    3.1132    0.5797   -0.2000 C   0  0  0  0  0  0  0  0  0  0  0  0
    1.9176    1.3448    0.3605 C   0  0  0  0  0  0  0  0  0  0  0  0
    0.6099    0.4360   -0.0984 C   0  0  0  0  0  0  0  0  0  0  0  0
    0.7879   -1.3478   -0.2557 C   0  0  0  0  0  0  0  0  0  0  0  0
    2.1289   -1.5163   -0.8228 C   0  0  0  0  0  0  0  0  0  0  0  0
   -0.7180   -1.9396   -0.9213 C   0  0  0  0  0  0  0  0  0  0  0  0
   -1.3508   -1.7397    0.4348 C   0  0  0  0  0  0  0  0  0  0  0  0
   -1.9437   -0.4294    1.0131 C   0  0  0  0  0  0  0  0  0  0  0  0
   -3.4879    0.1044    0.3426 C   0  0  0  0  0  0  0  0  0  0  0  0
   -2.9482    1.3833    0.4666 C   0  0  0  0  0  0  0  0  0  0  0  0
   -1.8386    0.8257   -0.6868 C   0  0  0  0  0  0  0  0  0  0  0  0
   -2.0815   -1.0301   -1.3897 C   0  0  0  0  0  0  0  0  0  0  0  0
   -0.8121    0.7831    0.4610 C   0  0  0  0  0  0  0  0  0  0  0  0
  1  2  1  0  0  0  0
  1  6  1  0  0  0  0
  2  3  1  0  0  0  0
  3  4  1  0  0  0  0
  4  5  1  0  0  0  0
  4 14  1  0  0  0  0
  5  6  1  0  0  0  0
  5  7  1  0  0  0  0
  7  8  1  0  0  0  0
  8  9  1  0  0  0  0
  8 14  1  0  0  0  0
  9 10  1  0  0  0  0
  9 13  1  0  0  0  0
 10 11  1  0  0  0  0
 11 12  1  0  0  0  0
 12 13  1  0  0  0  0
 12 14  1  0  0  0  0
M  END
