
 OpenBabel03222517353D

  8 10  0  0  0  0  0  0  0  0999 V2000
   -1.5932   -0.0442    0.7821 C   0  0  0  0  0  0  0  0  0  0  0  0
   -1.4767   -1.3392   -0.0084 C   0  0  0  0  0  0  0  0  0  0  0  0
   -0.0860   -1.4793   -0.6058 C   0  0  0  0  0  0  0  0  0  0  0  0
    0.9769   -0.7537    0.2095 C   0  0  0  0  0  0  0  0  0  0  0  0
    1.0206    0.7616    0.6431 C   0  0  0  0  0  0  0  0  0  0  0  0
    0.2730    1.2355   -0.5468 C   0  0  0  0  0  0  0  0  0  0  0  0
   -1.2067    1.1401   -0.1347 C   0  0  0  0  0  0  0  0  0  0  0  0
    1.5719    0.2993   -0.6373 C   0  0  0  0  0  0  0  0  0  0  0  0
  1  2  1  0  0  0  0
  1  7  1  0  0  0  0
  2  3  1  0  0  0  0
  3  4  1  0  0  0  0
  4  5  1  0  0  0  0
  4  8  1  0  0  0  0
  5  6  1  0  0  0  0
  5  8  1  0  0  0  0
  6  7  1  0  0  0  0
  6  8  1  0  0  0  0
M  END
