
 OpenBabel03222517363D

 11 13  0  0  0  0  0  0  0  0999 V2000
    2.1227    0.6773    0.4781 C   0  0  0  0  0  0  0  0  0  0  0  0
    1.9484   -0.8486   -0.0182 C   0  0  0  0  0  0  0  0  0  0  0  0
    0.4272   -1.1019   -0.5471 C   0  0  0  0  0  0  0  0  0  0  0  0
   -0.5710   -1.6787   -1.7777 C   0  0  0  0  0  0  0  0  0  0  0  0
   -2.2224   -0.8724   -1.8836 C   0  0  0  0  0  0  0  0  0  0  0  0
   -2.0787   -0.1641   -0.5978 C   0  0  0  0  0  0  0  0  0  0  0  0
   -2.0444    0.6130    0.7221 C   0  0  0  0  0  0  0  0  0  0  0  0
   -0.4947    0.4032    1.0066 C   0  0  0  0  0  0  0  0  0  0  0  0
    0.7821    1.1617    1.4192 C   0  0  0  0  0  0  0  0  0  0  0  0
   -0.0491    0.3097   -0.4115 C   0  0  0  0  0  0  0  0  0  0  0  0
   -1.1236    0.7475   -1.3042 C   0  0  0  0  0  0  0  0  0  0  0  0
  1  2  1  0  0  0  0
  1 10  1  0  0  0  0
  2  3  1  0  0  0  0
  3  4  1  0  0  0  0
  3  9  1  0  0  0  0
  4  5  1  0  0  0  0
  5  6  1  0  0  0  0
  6  7  1  0  0  0  0
  6 11  1  0  0  0  0
  7  8  1  0  0  0  0
  8  9  1  0  0  0  0
  9 10  1  0  0  0  0
  9 11  1  0  0  0  0
M  END
