
 OpenBabel03222517363D

 11 13  0  0  0  0  0  0  0  0999 V2000
   -2.2920    0.1817   -0.5587 C   0  0  0  0  0  0  0  0  0  0  0  0
   -1.2463    1.3300   -0.2758 C   0  0  0  0  0  0  0  0  0  0  0  0
   -0.0421    0.6403    0.4681 C   0  0  0  0  0  0  0  0  0  0  0  0
    1.2031    1.2727    1.0626 C   0  0  0  0  0  0  0  0  0  0  0  0
    2.5474    0.5386    0.7832 C   0  0  0  0  0  0  0  0  0  0  0  0
    2.7273   -0.2726   -0.5253 C   0  0  0  0  0  0  0  0  0  0  0  0
    1.6672   -1.4322   -0.4576 C   0  0  0  0  0  0  0  0  0  0  0  0
    0.5795   -2.3583    0.1776 C   0  0  0  0  0  0  0  0  0  0  0  0
   -0.6050   -1.5316   -0.3665 C   0  0  0  0  0  0  0  0  0  0  0  0
   -1.6097   -0.9997   -1.3509 C   0  0  0  0  0  0  0  0  0  0  0  0
    0.4494   -0.4193   -0.4905 C   0  0  0  0  0  0  0  0  0  0  0  0
  1  2  1  0  0  0  0
  1 10  1  0  0  0  0
  2  3  1  0  0  0  0
  3  4  1  0  0  0  0
  4  5  1  0  0  0  0
  4  9  1  0  0  0  0
  4 11  1  0  0  0  0
  5  6  1  0  0  0  0
  6  7  1  0  0  0  0
  6 11  1  0  0  0  0
  7  8  1  0  0  0  0
  8  9  1  0  0  0  0
  9 10  1  0  0  0  0
M  END
