
 OpenBabel03222517353D

 11 12  0  0  0  0  0  0  0  0999 V2000
    1.6301   -0.6787   -1.3733 C   0  0  0  0  0  0  0  0  0  0  0  0
    1.9887    0.8402   -1.1282 C   0  0  0  0  0  0  0  0  0  0  0  0
    1.1479    1.7595    0.0840 C   0  0  0  0  0  0  0  0  0  0  0  0
    0.1814    1.1042    1.4589 C   0  0  0  0  0  0  0  0  0  0  0  0
    0.7058   -0.3557    1.6094 C   0  0  0  0  0  0  0  0  0  0  0  0
   -0.0980   -1.5170    0.9330 C   0  0  0  0  0  0  0  0  0  0  0  0
   -1.1456   -0.9472   -0.1213 C   0  0  0  0  0  0  0  0  0  0  0  0
   -0.7080   -0.0705   -1.3133 C   0  0  0  0  0  0  0  0  0  0  0  0
    0.1883   -1.0222   -2.0523 C   0  0  0  0  0  0  0  0  0  0  0  0
   -2.1718   -0.0224    0.4682 C   0  0  0  0  0  0  0  0  0  0  0  0
   -1.4800    0.7790    1.5770 C   0  0  0  0  0  0  0  0  0  0  0  0
  1  2  1  0  0  0  0
  1  7  1  0  0  0  0
  2  3  1  0  0  0  0
  3  4  1  0  0  0  0
  4  5  1  0  0  0  0
  5  6  1  0  0  0  0
  5  8  1  0  0  0  0
  5 11  1  0  0  0  0
  6  7  1  0  0  0  0
  8  9  1  0  0  0  0
  9 10  1  0  0  0  0
 10 11  1  0  0  0  0
M  END
