
 OpenBabel03222517363D

 12 14  0  0  0  0  0  0  0  0999 V2000
   -2.5287    0.7631    0.3492 C   0  0  0  0  0  0  0  0  0  0  0  0
   -2.6387   -0.6826   -0.1748 C   0  0  0  0  0  0  0  0  0  0  0  0
   -1.5265   -1.4870    0.5029 C   0  0  0  0  0  0  0  0  0  0  0  0
   -0.3116   -0.5962    0.2941 C   0  0  0  0  0  0  0  0  0  0  0  0
    0.0198    0.9010    0.3040 C   0  0  0  0  0  0  0  0  0  0  0  0
   -1.2870    1.5482   -0.2270 C   0  0  0  0  0  0  0  0  0  0  0  0
    1.5843    0.4072    0.3499 C   0  0  0  0  0  0  0  0  0  0  0  0
    2.8488    0.3941   -0.5035 C   0  0  0  0  0  0  0  0  0  0  0  0
    3.2781   -0.8624   -1.3006 C   0  0  0  0  0  0  0  0  0  0  0  0
    2.2396   -1.8525   -1.6793 C   0  0  0  0  0  0  0  0  0  0  0  0
    1.3289   -2.0266   -0.5430 C   0  0  0  0  0  0  0  0  0  0  0  0
    1.1205   -1.0317    0.5882 C   0  0  0  0  0  0  0  0  0  0  0  0
  1  2  1  0  0  0  0
  1  6  1  0  0  0  0
  2  3  1  0  0  0  0
  3  4  1  0  0  0  0
  4  5  1  0  0  0  0
  4  9  1  0  0  0  0
  5  6  1  0  0  0  0
  5  7  1  0  0  0  0
  7  8  1  0  0  0  0
  8  9  1  0  0  0  0
  9 10  1  0  0  0  0
  9 12  1  0  0  0  0
 10 11  1  0  0  0  0
 11 12  1  0  0  0  0
M  END
