
 OpenBabel03222517363D

  9 11  0  0  0  0  0  0  0  0999 V2000
   -0.8549    1.0245   -0.6754 C   0  0  0  0  0  0  0  0  0  0  0  0
   -0.1329    1.4784    0.5940 C   0  0  0  0  0  0  0  0  0  0  0  0
    0.5752    0.0385    0.6921 C   0  0  0  0  0  0  0  0  0  0  0  0
    0.6541    0.5811   -0.9751 C   0  0  0  0  0  0  0  0  0  0  0  0
    1.7493   -0.6792    0.2163 C   0  0  0  0  0  0  0  0  0  0  0  0
    0.2606   -1.7382   -0.2117 C   0  0  0  0  0  0  0  0  0  0  0  0
   -1.3731   -1.6173   -0.1394 C   0  0  0  0  0  0  0  0  0  0  0  0
   -0.6529   -1.7133   -1.4600 C   0  0  0  0  0  0  0  0  0  0  0  0
    0.3419   -1.7315    1.1256 C   0  0  0  0  0  0  0  0  0  0  0  0
  1  2  1  0  0  0  0
  1  7  1  0  0  0  0
  2  3  1  0  0  0  0
  3  4  1  0  0  0  0
  3  5  1  0  0  0  0
  3  6  1  0  0  0  0
  4  5  1  0  0  0  0
  6  7  1  0  0  0  0
  6  8  1  0  0  0  0
  6  9  1  0  0  0  0
  8  9  1  0  0  0  0
M  END
