
 OpenBabel03222517363D

 13 15  0  0  0  0  0  0  0  0999 V2000
    2.8248   -0.8044   -0.1762 C   0  0  0  0  0  0  0  0  0  0  0  0
    2.5711    0.8117   -0.8756 C   0  0  0  0  0  0  0  0  0  0  0  0
    1.4716    1.9685   -0.1796 C   0  0  0  0  0  0  0  0  0  0  0  0
    0.1868    1.4633    0.7054 C   0  0  0  0  0  0  0  0  0  0  0  0
    1.0223    0.3086    0.8911 C   0  0  0  0  0  0  0  0  0  0  0  0
    0.4097   -0.2042   -0.8964 C   0  0  0  0  0  0  0  0  0  0  0  0
   -0.9691    0.2030   -0.8913 C   0  0  0  0  0  0  0  0  0  0  0  0
   -2.2596   -0.4476   -1.2251 C   0  0  0  0  0  0  0  0  0  0  0  0
   -3.0975    0.1655   -0.0910 C   0  0  0  0  0  0  0  0  0  0  0  0
   -2.1985    0.1580    1.1501 C   0  0  0  0  0  0  0  0  0  0  0  0
   -0.8175    0.0838    0.5614 C   0  0  0  0  0  0  0  0  0  0  0  0
   -0.0490   -1.6217    0.9257 C   0  0  0  0  0  0  0  0  0  0  0  0
    1.5617   -2.0126    0.2431 C   0  0  0  0  0  0  0  0  0  0  0  0
  1  2  1  0  0  0  0
  1 13  1  0  0  0  0
  2  3  1  0  0  0  0
  3  4  1  0  0  0  0
  4  5  1  0  0  0  0
  4 11  1  0  0  0  0
  5  6  1  0  0  0  0
  6  7  1  0  0  0  0
  7  8  1  0  0  0  0
  7 11  1  0  0  0  0
  8  9  1  0  0  0  0
  9 10  1  0  0  0  0
 10 11  1  0  0  0  0
 11 12  1  0  0  0  0
 12 13  1  0  0  0  0
M  END
