
 OpenBabel03222517353D

  7  8  0  0  0  0  0  0  0  0999 V2000
    1.6743   -0.0001   -0.1403 C   0  0  0  0  0  0  0  0  0  0  0  0
    0.8957    1.2618    0.2449 C   0  0  0  0  0  0  0  0  0  0  0  0
   -0.5991    1.0530   -0.0437 C   0  0  0  0  0  0  0  0  0  0  0  0
   -1.2187    0.0008    0.9246 C   0  0  0  0  0  0  0  0  0  0  0  0
   -0.5990   -1.0524   -0.0424 C   0  0  0  0  0  0  0  0  0  0  0  0
    0.8953   -1.2602    0.2494 C   0  0  0  0  0  0  0  0  0  0  0  0
   -0.9120   -0.0002   -1.1596 C   0  0  0  0  0  0  0  0  0  0  0  0
  1  2  1  0  0  0  0
  1  6  1  0  0  0  0
  2  3  1  0  0  0  0
  3  4  1  0  0  0  0
  3  7  1  0  0  0  0
  4  5  1  0  0  0  0
  5  6  1  0  0  0  0
  5  7  1  0  0  0  0
M  END
