
 OpenBabel03222517383D

 14 18  0  0  0  0  0  0  0  0999 V2000
    0.1143    2.4476    0.7944 C   0  0  0  0  0  0  0  0  0  0  0  0
    1.3248    2.1078   -0.6750 C   0  0  0  0  0  0  0  0  0  0  0  0
    0.7681    0.9937   -0.0293 C   0  0  0  0  0  0  0  0  0  0  0  0
    1.9825    1.0242    0.1286 C   0  0  0  0  0  0  0  0  0  0  0  0
    0.3469    1.5623   -1.1089 C   0  0  0  0  0  0  0  0  0  0  0  0
   -0.2682    0.5107    0.8142 C   0  0  0  0  0  0  0  0  0  0  0  0
   -1.4276    1.3062    0.4064 C   0  0  0  0  0  0  0  0  0  0  0  0
   -1.8872   -0.4202   -0.1699 C   0  0  0  0  0  0  0  0  0  0  0  0
   -1.8387   -1.3280    1.3034 C   0  0  0  0  0  0  0  0  0  0  0  0
   -0.2564   -1.8300    1.1969 C   0  0  0  0  0  0  0  0  0  0  0  0
    0.0168   -0.7706    0.1973 C   0  0  0  0  0  0  0  0  0  0  0  0
   -0.7197   -1.2817   -0.9290 C   0  0  0  0  0  0  0  0  0  0  0  0
   -0.9448   -2.7199   -0.9567 C   0  0  0  0  0  0  0  0  0  0  0  0
    0.7365   -2.2012   -1.1063 C   0  0  0  0  0  0  0  0  0  0  0  0
  1  2  1  0  0  0  0
  1  6  1  0  0  0  0
  2  3  1  0  0  0  0
  3  4  1  0  0  0  0
  3  6  1  0  0  0  0
  3 14  1  0  0  0  0
  4  5  1  0  0  0  0
  5  6  1  0  0  0  0
  6  7  1  0  0  0  0
  7  8  1  0  0  0  0
  8  9  1  0  0  0  0
  8 11  1  0  0  0  0
  8 13  1  0  0  0  0
  9 10  1  0  0  0  0
 10 11  1  0  0  0  0
 11 12  1  0  0  0  0
 11 14  1  0  0  0  0
 12 13  1  0  0  0  0
M  END
