
 OpenBabel03222517363D

 11 14  0  0  0  0  0  0  0  0999 V2000
   -2.6702    0.6115   -0.3055 C   0  0  0  0  0  0  0  0  0  0  0  0
   -2.0464   -0.6820   -0.0710 C   0  0  0  0  0  0  0  0  0  0  0  0
   -0.7808    0.0108    0.9150 C   0  0  0  0  0  0  0  0  0  0  0  0
   -1.2040    1.6932    0.7277 C   0  0  0  0  0  0  0  0  0  0  0  0
   -1.3504    1.3165   -0.7042 C   0  0  0  0  0  0  0  0  0  0  0  0
    0.1773    0.6022   -0.7942 C   0  0  0  0  0  0  0  0  0  0  0  0
    1.1186    1.8324    0.3007 C   0  0  0  0  0  0  0  0  0  0  0  0
    2.2372    0.9368    0.0382 C   0  0  0  0  0  0  0  0  0  0  0  0
    0.8815   -0.1043    0.4065 C   0  0  0  0  0  0  0  0  0  0  0  0
    1.6773   -1.1639   -0.4733 C   0  0  0  0  0  0  0  0  0  0  0  0
    0.3391   -1.2396   -1.0633 C   0  0  0  0  0  0  0  0  0  0  0  0
  1  2  1  0  0  0  0
  1  5  1  0  0  0  0
  2  3  1  0  0  0  0
  3  4  1  0  0  0  0
  3 11  1  0  0  0  0
  4  5  1  0  0  0  0
  5  6  1  0  0  0  0
  6  7  1  0  0  0  0
  6 11  1  0  0  0  0
  7  8  1  0  0  0  0
  8  9  1  0  0  0  0
  8 10  1  0  0  0  0
  9 10  1  0  0  0  0
 10 11  1  0  0  0  0
M  END
