
 OpenBabel03222517383D

 13 16  0  0  0  0  0  0  0  0999 V2000
   -1.7760    0.6620    0.5184 C   0  0  0  0  0  0  0  0  0  0  0  0
   -0.2143    0.7752    1.4033 C   0  0  0  0  0  0  0  0  0  0  0  0
    1.4615    0.1519    1.6926 C   0  0  0  0  0  0  0  0  0  0  0  0
    2.2831   -0.2617    0.4055 C   0  0  0  0  0  0  0  0  0  0  0  0
    2.1660    0.6263   -0.9960 C   0  0  0  0  0  0  0  0  0  0  0  0
    0.6673    1.0914   -1.5465 C   0  0  0  0  0  0  0  0  0  0  0  0
   -1.0431    0.6906   -2.0264 C   0  0  0  0  0  0  0  0  0  0  0  0
   -1.8716   -0.2302   -0.8428 C   0  0  0  0  0  0  0  0  0  0  0  0
   -1.1920   -1.6514   -0.5310 C   0  0  0  0  0  0  0  0  0  0  0  0
    0.0608   -1.1997    0.1448 C   0  0  0  0  0  0  0  0  0  0  0  0
   -0.4713   -0.6264    1.6671 C   0  0  0  0  0  0  0  0  0  0  0  0
    1.4667   -1.6628    0.2723 C   0  0  0  0  0  0  0  0  0  0  0  0
    0.5095   -0.2796   -1.0656 C   0  0  0  0  0  0  0  0  0  0  0  0
  1  2  1  0  0  0  0
  1  8  1  0  0  0  0
  2  3  1  0  0  0  0
  2 11  1  0  0  0  0
  3  4  1  0  0  0  0
  4  5  1  0  0  0  0
  4 12  1  0  0  0  0
  5  6  1  0  0  0  0
  6  7  1  0  0  0  0
  6 13  1  0  0  0  0
  7  8  1  0  0  0  0
  8  9  1  0  0  0  0
  9 10  1  0  0  0  0
 10 11  1  0  0  0  0
 10 12  1  0  0  0  0
 10 13  1  0  0  0  0
M  END
