
 OpenBabel03222517353D

 10 12  0  0  0  0  0  0  0  0999 V2000
    1.6309    0.1977    0.1618 C   0  0  0  0  0  0  0  0  0  0  0  0
    0.4926   -1.4078    0.1202 C   0  0  0  0  0  0  0  0  0  0  0  0
    0.6431   -0.0036    1.0263 C   0  0  0  0  0  0  0  0  0  0  0  0
   -0.1366   -0.5624    0.0944 C   0  0  0  0  0  0  0  0  0  0  0  0
    0.3581   -1.5979    1.9530 C   0  0  0  0  0  0  0  0  0  0  0  0
    0.4152   -0.7299    3.2863 C   0  0  0  0  0  0  0  0  0  0  0  0
   -0.8881   -1.4746    3.8654 C   0  0  0  0  0  0  0  0  0  0  0  0
   -0.5070   -0.2269    4.3919 C   0  0  0  0  0  0  0  0  0  0  0  0
    0.9608    0.8095    2.9103 C   0  0  0  0  0  0  0  0  0  0  0  0
   -0.0221    1.1013    1.7860 C   0  0  0  0  0  0  0  0  0  0  0  0
  1  2  1  0  0  0  0
  1  4  1  0  0  0  0
  2  3  1  0  0  0  0
  3  4  1  0  0  0  0
  3  5  1  0  0  0  0
  3  8  1  0  0  0  0
  5  6  1  0  0  0  0
  6  7  1  0  0  0  0
  7  8  1  0  0  0  0
  8  9  1  0  0  0  0
  8 10  1  0  0  0  0
  9 10  1  0  0  0  0
M  END
