
 OpenBabel03222517363D

 12 14  0  0  0  0  0  0  0  0999 V2000
    1.6836   -0.2988   -0.4356 C   0  0  0  0  0  0  0  0  0  0  0  0
    2.2215   -1.6763   -0.3979 C   0  0  0  0  0  0  0  0  0  0  0  0
    1.3034   -1.8318    0.6853 C   0  0  0  0  0  0  0  0  0  0  0  0
    0.1335   -0.9540   -0.4670 C   0  0  0  0  0  0  0  0  0  0  0  0
   -0.5221   -0.9019   -2.0730 C   0  0  0  0  0  0  0  0  0  0  0  0
   -0.3665   -0.7864   -0.6767 C   0  0  0  0  0  0  0  0  0  0  0  0
   -1.5664    0.5131   -1.4497 C   0  0  0  0  0  0  0  0  0  0  0  0
   -2.2607    0.6204    0.3500 C   0  0  0  0  0  0  0  0  0  0  0  0
   -1.5043   -0.7114    1.3783 C   0  0  0  0  0  0  0  0  0  0  0  0
   -0.2052    0.7335    1.3005 C   0  0  0  0  0  0  0  0  0  0  0  0
    0.3355    1.8103   -0.0466 C   0  0  0  0  0  0  0  0  0  0  0  0
    0.0765    0.9749   -1.2019 C   0  0  0  0  0  0  0  0  0  0  0  0
  1  2  1  0  0  0  0
  1 12  1  0  0  0  0
  2  3  1  0  0  0  0
  3  4  1  0  0  0  0
  4  5  1  0  0  0  0
  4 10  1  0  0  0  0
  5  6  1  0  0  0  0
  5  9  1  0  0  0  0
  6  7  1  0  0  0  0
  7  8  1  0  0  0  0
  8  9  1  0  0  0  0
  8 10  1  0  0  0  0
 10 11  1  0  0  0  0
 11 12  1  0  0  0  0
M  END
