
 OpenBabel03222517353D

  9 12  0  0  0  0  0  0  0  0999 V2000
    2.0235   -0.7618   -0.4261 C   0  0  0  0  0  0  0  0  0  0  0  0
    1.1398   -0.0292    0.8549 C   0  0  0  0  0  0  0  0  0  0  0  0
    1.5480    0.5471   -0.3895 C   0  0  0  0  0  0  0  0  0  0  0  0
    0.1754    0.6898   -1.0832 C   0  0  0  0  0  0  0  0  0  0  0  0
   -0.4029    1.7003   -0.0678 C   0  0  0  0  0  0  0  0  0  0  0  0
   -0.4593    0.5397    0.9695 C   0  0  0  0  0  0  0  0  0  0  0  0
   -1.5457   -0.2512    0.1880 C   0  0  0  0  0  0  0  0  0  0  0  0
   -1.8635   -1.5612   -0.4154 C   0  0  0  0  0  0  0  0  0  0  0  0
   -0.5972   -0.8338   -0.7992 C   0  0  0  0  0  0  0  0  0  0  0  0
  1  2  1  0  0  0  0
  1  9  1  0  0  0  0
  2  3  1  0  0  0  0
  2  9  1  0  0  0  0
  3  4  1  0  0  0  0
  3  5  1  0  0  0  0
  4  5  1  0  0  0  0
  5  6  1  0  0  0  0
  6  7  1  0  0  0  0
  6  8  1  0  0  0  0
  7  8  1  0  0  0  0
  8  9  1  0  0  0  0
M  END
