
 OpenBabel03222517373D

 13 15  0  0  0  0  0  0  0  0999 V2000
   -2.5483    0.7072   -0.3277 C   0  0  0  0  0  0  0  0  0  0  0  0
   -2.5593   -0.8112   -0.4604 C   0  0  0  0  0  0  0  0  0  0  0  0
   -1.1461   -1.3514   -0.5442 C   0  0  0  0  0  0  0  0  0  0  0  0
   -0.2680   -0.8483    0.6235 C   0  0  0  0  0  0  0  0  0  0  0  0
    1.1757   -1.3330    0.5606 C   0  0  0  0  0  0  0  0  0  0  0  0
    2.1015   -0.4573   -0.3508 C   0  0  0  0  0  0  0  0  0  0  0  0
    1.8243   -1.2560   -1.7698 C   0  0  0  0  0  0  0  0  0  0  0  0
    1.2399    0.0715   -2.3482 C   0  0  0  0  0  0  0  0  0  0  0  0
    2.4003    0.6647   -1.6118 C   0  0  0  0  0  0  0  0  0  0  0  0
    2.2802    0.7672    0.5611 C   0  0  0  0  0  0  0  0  0  0  0  0
    0.9133    1.5316    0.5833 C   0  0  0  0  0  0  0  0  0  0  0  0
   -0.2944    0.6416    1.0187 C   0  0  0  0  0  0  0  0  0  0  0  0
   -1.7004    1.2336    0.8404 C   0  0  0  0  0  0  0  0  0  0  0  0
  1  2  1  0  0  0  0
  1 13  1  0  0  0  0
  2  3  1  0  0  0  0
  3  4  1  0  0  0  0
  4  5  1  0  0  0  0
  4 12  1  0  0  0  0
  5  6  1  0  0  0  0
  6  7  1  0  0  0  0
  6 10  1  0  0  0  0
  7  8  1  0  0  0  0
  8  9  1  0  0  0  0
  9 10  1  0  0  0  0
  9 11  1  0  0  0  0
 11 12  1  0  0  0  0
 12 13  1  0  0  0  0
M  END
