
 OpenBabel03222517373D

 13 15  0  0  0  0  0  0  0  0999 V2000
    2.9720   -0.6777    0.2793 C   0  0  0  0  0  0  0  0  0  0  0  0
    3.1951    0.6808   -0.3130 C   0  0  0  0  0  0  0  0  0  0  0  0
    1.9503    1.4872    0.1019 C   0  0  0  0  0  0  0  0  0  0  0  0
    0.6269    0.6109   -0.5669 C   0  0  0  0  0  0  0  0  0  0  0  0
    0.8186   -0.9866   -0.0903 C   0  0  0  0  0  0  0  0  0  0  0  0
    2.0869   -1.4355   -0.7341 C   0  0  0  0  0  0  0  0  0  0  0  0
   -0.3878   -1.7174    0.0650 C   0  0  0  0  0  0  0  0  0  0  0  0
   -1.2357   -0.6004    0.7667 C   0  0  0  0  0  0  0  0  0  0  0  0
   -2.4695   -0.9954   -0.1706 C   0  0  0  0  0  0  0  0  0  0  0  0
   -3.3743    0.1150   -0.5347 C   0  0  0  0  0  0  0  0  0  0  0  0
   -2.6315    1.1989    0.0991 C   0  0  0  0  0  0  0  0  0  0  0  0
   -0.9498    1.2213   -0.5407 C   0  0  0  0  0  0  0  0  0  0  0  0
   -0.7529    1.1767    0.8368 C   0  0  0  0  0  0  0  0  0  0  0  0
  1  2  1  0  0  0  0
  1  6  1  0  0  0  0
  2  3  1  0  0  0  0
  3  4  1  0  0  0  0
  4  5  1  0  0  0  0
  4 13  1  0  0  0  0
  5  6  1  0  0  0  0
  5  7  1  0  0  0  0
  7  8  1  0  0  0  0
  8  9  1  0  0  0  0
  9 10  1  0  0  0  0
  9 13  1  0  0  0  0
 10 11  1  0  0  0  0
 11 12  1  0  0  0  0
 12 13  1  0  0  0  0
M  END
