
 OpenBabel03222517373D

 14 15  0  0  0  0  0  0  0  0999 V2000
    0.2911    1.9487   -0.1993 C   0  0  0  0  0  0  0  0  0  0  0  0
    1.4413    1.4468   -1.0754 C   0  0  0  0  0  0  0  0  0  0  0  0
    2.3600    0.6345   -0.1566 C   0  0  0  0  0  0  0  0  0  0  0  0
    1.8983   -0.7170    0.5142 C   0  0  0  0  0  0  0  0  0  0  0  0
    0.6900   -1.6878    0.3602 C   0  0  0  0  0  0  0  0  0  0  0  0
   -0.3537   -1.4683   -0.7184 C   0  0  0  0  0  0  0  0  0  0  0  0
   -1.7946   -1.6424   -0.2005 C   0  0  0  0  0  0  0  0  0  0  0  0
   -2.6030   -0.3196   -0.2228 C   0  0  0  0  0  0  0  0  0  0  0  0
   -1.9844    0.9149    0.5464 C   0  0  0  0  0  0  0  0  0  0  0  0
   -1.1742    1.8080   -0.5134 C   0  0  0  0  0  0  0  0  0  0  0  0
   -1.3491    0.3498    1.8772 C   0  0  0  0  0  0  0  0  0  0  0  0
   -0.3827    1.0377    2.8466 C   0  0  0  0  0  0  0  0  0  0  0  0
    1.1743    0.7766    2.6428 C   0  0  0  0  0  0  0  0  0  0  0  0
    2.0098   -0.4707    2.0614 C   0  0  0  0  0  0  0  0  0  0  0  0
  1  2  1  0  0  0  0
  1 10  1  0  0  0  0
  2  3  1  0  0  0  0
  3  4  1  0  0  0  0
  4  5  1  0  0  0  0
  4 14  1  0  0  0  0
  5  6  1  0  0  0  0
  6  7  1  0  0  0  0
  7  8  1  0  0  0  0
  8  9  1  0  0  0  0
  9 10  1  0  0  0  0
  9 11  1  0  0  0  0
 11 12  1  0  0  0  0
 12 13  1  0  0  0  0
 13 14  1  0  0  0  0
M  END
