
 OpenBabel03222517373D

 14 16  0  0  0  0  0  0  0  0999 V2000
   -1.1207    2.4177    0.1815 C   0  0  0  0  0  0  0  0  0  0  0  0
    0.2318    3.0356   -0.1089 C   0  0  0  0  0  0  0  0  0  0  0  0
    1.3429    2.2716    0.6059 C   0  0  0  0  0  0  0  0  0  0  0  0
    1.7664    1.0219   -0.1425 C   0  0  0  0  0  0  0  0  0  0  0  0
    3.2080    0.6134    0.2408 C   0  0  0  0  0  0  0  0  0  0  0  0
    2.8143   -0.8111   -0.2134 C   0  0  0  0  0  0  0  0  0  0  0  0
    1.3381   -0.4391    0.3062 C   0  0  0  0  0  0  0  0  0  0  0  0
    0.0203   -0.9848   -0.3280 C   0  0  0  0  0  0  0  0  0  0  0  0
   -0.1719   -2.4807    0.0601 C   0  0  0  0  0  0  0  0  0  0  0  0
   -1.5919   -2.8750   -0.3594 C   0  0  0  0  0  0  0  0  0  0  0  0
   -2.4894   -2.0774    0.5862 C   0  0  0  0  0  0  0  0  0  0  0  0
   -2.6988   -0.7775   -0.1153 C   0  0  0  0  0  0  0  0  0  0  0  0
   -1.3046   -0.0734    0.0053 C   0  0  0  0  0  0  0  0  0  0  0  0
   -1.3618    1.2445   -0.7681 C   0  0  0  0  0  0  0  0  0  0  0  0
  1  2  1  0  0  0  0
  1 14  1  0  0  0  0
  2  3  1  0  0  0  0
  3  4  1  0  0  0  0
  4  5  1  0  0  0  0
  4  7  1  0  0  0  0
  5  6  1  0  0  0  0
  6  7  1  0  0  0  0
  7  8  1  0  0  0  0
  8  9  1  0  0  0  0
  8 13  1  0  0  0  0
  9 10  1  0  0  0  0
 10 11  1  0  0  0  0
 11 12  1  0  0  0  0
 12 13  1  0  0  0  0
 13 14  1  0  0  0  0
M  END
