
 OpenBabel03222517373D

 14 16  0  0  0  0  0  0  0  0999 V2000
   -1.6164    1.6157    1.2783 C   0  0  0  0  0  0  0  0  0  0  0  0
   -0.3850    2.8242    0.3839 C   0  0  0  0  0  0  0  0  0  0  0  0
    1.2441    2.4401    0.4349 C   0  0  0  0  0  0  0  0  0  0  0  0
    1.5423    1.4165   -0.8811 C   0  0  0  0  0  0  0  0  0  0  0  0
    1.0734   -0.0972   -0.6769 C   0  0  0  0  0  0  0  0  0  0  0  0
    2.2620   -0.6795    0.0505 C   0  0  0  0  0  0  0  0  0  0  0  0
    1.9872   -2.0841   -0.3888 C   0  0  0  0  0  0  0  0  0  0  0  0
    0.5146   -2.4451   -0.0219 C   0  0  0  0  0  0  0  0  0  0  0  0
   -0.3556   -1.2486   -0.8140 C   0  0  0  0  0  0  0  0  0  0  0  0
   -1.5306   -1.6508    0.2410 C   0  0  0  0  0  0  0  0  0  0  0  0
   -2.1621   -0.2493    1.2408 C   0  0  0  0  0  0  0  0  0  0  0  0
   -1.8754   -0.3279   -1.2715 C   0  0  0  0  0  0  0  0  0  0  0  0
   -1.1579    0.8732   -1.1121 C   0  0  0  0  0  0  0  0  0  0  0  0
   -0.0802    0.3406    0.0829 C   0  0  0  0  0  0  0  0  0  0  0  0
  1  2  1  0  0  0  0
  1 13  1  0  0  0  0
  2  3  1  0  0  0  0
  3  4  1  0  0  0  0
  4  5  1  0  0  0  0
  5  6  1  0  0  0  0
  6  7  1  0  0  0  0
  6 14  1  0  0  0  0
  7  8  1  0  0  0  0
  7 14  1  0  0  0  0
  8  9  1  0  0  0  0
  9 10  1  0  0  0  0
 10 11  1  0  0  0  0
 10 14  1  0  0  0  0
 11 12  1  0  0  0  0
 12 13  1  0  0  0  0
M  END
