
 OpenBabel03222517353D

  9 12  0  0  0  0  0  0  0  0999 V2000
   -2.2050    0.0393    0.3084 C   0  0  0  0  0  0  0  0  0  0  0  0
   -1.7441   -1.3200    0.7694 C   0  0  0  0  0  0  0  0  0  0  0  0
   -0.3242   -0.8001    1.0036 C   0  0  0  0  0  0  0  0  0  0  0  0
   -0.9821    0.5830    1.1724 C   0  0  0  0  0  0  0  0  0  0  0  0
    0.2177    1.2011    0.4547 C   0  0  0  0  0  0  0  0  0  0  0  0
    0.3566    0.9624   -1.0164 C   0  0  0  0  0  0  0  0  0  0  0  0
    1.3571   -0.4560   -0.5859 C   0  0  0  0  0  0  0  0  0  0  0  0
    0.9460   -0.0927    0.7380 C   0  0  0  0  0  0  0  0  0  0  0  0
    1.6536    1.3115    1.0196 C   0  0  0  0  0  0  0  0  0  0  0  0
  1  2  1  0  0  0  0
  1  5  1  0  0  0  0
  2  3  1  0  0  0  0
  3  4  1  0  0  0  0
  3  7  1  0  0  0  0
  4  5  1  0  0  0  0
  4  6  1  0  0  0  0
  5  6  1  0  0  0  0
  6  7  1  0  0  0  0
  7  8  1  0  0  0  0
  7  9  1  0  0  0  0
  8  9  1  0  0  0  0
M  END
