
 OpenBabel03222517383D

 15 18  0  0  0  0  0  0  0  0999 V2000
   -1.8260    1.2901   -0.2271 C   0  0  0  0  0  0  0  0  0  0  0  0
   -0.2611    2.6444   -0.2232 C   0  0  0  0  0  0  0  0  0  0  0  0
    1.0526    2.0404    0.4691 C   0  0  0  0  0  0  0  0  0  0  0  0
    1.7264    1.1340   -0.5714 C   0  0  0  0  0  0  0  0  0  0  0  0
    1.3152   -0.5377   -0.0133 C   0  0  0  0  0  0  0  0  0  0  0  0
    2.8306   -0.3814    0.2170 C   0  0  0  0  0  0  0  0  0  0  0  0
    2.7472   -1.8087   -0.0061 C   0  0  0  0  0  0  0  0  0  0  0  0
    1.4174   -2.4134   -0.6941 C   0  0  0  0  0  0  0  0  0  0  0  0
    0.1935   -1.9083    0.0401 C   0  0  0  0  0  0  0  0  0  0  0  0
   -1.4128   -0.8751   -0.9308 C   0  0  0  0  0  0  0  0  0  0  0  0
   -0.4934   -0.9620    0.6741 C   0  0  0  0  0  0  0  0  0  0  0  0
   -2.4723   -0.5610    0.5655 C   0  0  0  0  0  0  0  0  0  0  0  0
   -1.2388    0.1478    1.2238 C   0  0  0  0  0  0  0  0  0  0  0  0
   -0.1848    0.6927   -0.4379 C   0  0  0  0  0  0  0  0  0  0  0  0
    0.3690    0.9890    1.1803 C   0  0  0  0  0  0  0  0  0  0  0  0
  1  2  1  0  0  0  0
  1 14  1  0  0  0  0
  2  3  1  0  0  0  0
  3  4  1  0  0  0  0
  3 15  1  0  0  0  0
  4  5  1  0  0  0  0
  5  6  1  0  0  0  0
  6  7  1  0  0  0  0
  6 15  1  0  0  0  0
  7  8  1  0  0  0  0
  7 11  1  0  0  0  0
  8  9  1  0  0  0  0
  9 10  1  0  0  0  0
 10 11  1  0  0  0  0
 11 12  1  0  0  0  0
 12 13  1  0  0  0  0
 13 14  1  0  0  0  0
 13 15  1  0  0  0  0
M  END
