
 OpenBabel03222517353D

 10 12  0  0  0  0  0  0  0  0999 V2000
    1.7531   -0.2871   -1.0508 C   0  0  0  0  0  0  0  0  0  0  0  0
    1.7824    1.2615   -0.3987 C   0  0  0  0  0  0  0  0  0  0  0  0
    0.6306    1.2453    0.4683 C   0  0  0  0  0  0  0  0  0  0  0  0
   -0.4735    0.8742   -0.4002 C   0  0  0  0  0  0  0  0  0  0  0  0
   -1.7972    0.8973   -0.0995 C   0  0  0  0  0  0  0  0  0  0  0  0
   -1.6928   -0.5311   -0.6535 C   0  0  0  0  0  0  0  0  0  0  0  0
    0.0068   -1.2841   -1.0389 C   0  0  0  0  0  0  0  0  0  0  0  0
   -0.4717   -2.2769    0.2681 C   0  0  0  0  0  0  0  0  0  0  0  0
   -0.0513   -1.3877    1.4016 C   0  0  0  0  0  0  0  0  0  0  0  0
    0.5353   -0.1997    0.8652 C   0  0  0  0  0  0  0  0  0  0  0  0
  1  2  1  0  0  0  0
  1 10  1  0  0  0  0
  2  3  1  0  0  0  0
  3  4  1  0  0  0  0
  3  9  1  0  0  0  0
  4  5  1  0  0  0  0
  5  6  1  0  0  0  0
  6  7  1  0  0  0  0
  6  8  1  0  0  0  0
  7  8  1  0  0  0  0
  8  9  1  0  0  0  0
  9 10  1  0  0  0  0
M  END
