
 OpenBabel03222517363D

 10 13  0  0  0  0  0  0  0  0999 V2000
    1.2147    0.5200   -0.9457 C   0  0  0  0  0  0  0  0  0  0  0  0
    1.6996   -0.7911   -0.1833 C   0  0  0  0  0  0  0  0  0  0  0  0
    0.3902   -1.4496   -0.0531 C   0  0  0  0  0  0  0  0  0  0  0  0
   -0.2099   -1.5293   -1.7222 C   0  0  0  0  0  0  0  0  0  0  0  0
   -1.1928   -0.4200   -1.6605 C   0  0  0  0  0  0  0  0  0  0  0  0
   -0.6338    0.6891   -1.0782 C   0  0  0  0  0  0  0  0  0  0  0  0
   -1.5095   -0.1919   -0.2451 C   0  0  0  0  0  0  0  0  0  0  0  0
   -0.4779   -0.2858    0.7952 C   0  0  0  0  0  0  0  0  0  0  0  0
   -0.6354    0.7293    1.9417 C   0  0  0  0  0  0  0  0  0  0  0  0
    0.2628    1.4073    1.0576 C   0  0  0  0  0  0  0  0  0  0  0  0
  1  2  1  0  0  0  0
  1 10  1  0  0  0  0
  2  3  1  0  0  0  0
  3  4  1  0  0  0  0
  3  9  1  0  0  0  0
  4  5  1  0  0  0  0
  5  6  1  0  0  0  0
  5  9  1  0  0  0  0
  6  7  1  0  0  0  0
  6  8  1  0  0  0  0
  7  8  1  0  0  0  0
  8  9  1  0  0  0  0
  9 10  1  0  0  0  0
M  END
