
 OpenBabel03222517353D

 10 13  0  0  0  0  0  0  0  0999 V2000
    0.7690    1.9235    1.0016 C   0  0  0  0  0  0  0  0  0  0  0  0
    0.5001    0.8689   -0.0041 C   0  0  0  0  0  0  0  0  0  0  0  0
    1.7178    0.8196    0.6733 C   0  0  0  0  0  0  0  0  0  0  0  0
    1.2516   -0.2583   -0.1446 C   0  0  0  0  0  0  0  0  0  0  0  0
    1.4204   -1.7566    0.1372 C   0  0  0  0  0  0  0  0  0  0  0  0
    0.3542   -1.8587   -0.8675 C   0  0  0  0  0  0  0  0  0  0  0  0
   -0.3547   -0.9192    0.1520 C   0  0  0  0  0  0  0  0  0  0  0  0
   -0.7293    0.2150   -0.5736 C   0  0  0  0  0  0  0  0  0  0  0  0
   -2.0239    0.3993    0.3431 C   0  0  0  0  0  0  0  0  0  0  0  0
   -1.6406    1.7056   -0.1112 C   0  0  0  0  0  0  0  0  0  0  0  0
  1  2  1  0  0  0  0
  1 10  1  0  0  0  0
  2  3  1  0  0  0  0
  2  4  1  0  0  0  0
  3  4  1  0  0  0  0
  4  5  1  0  0  0  0
  5  6  1  0  0  0  0
  5  7  1  0  0  0  0
  6  7  1  0  0  0  0
  7  8  1  0  0  0  0
  8  9  1  0  0  0  0
  8 10  1  0  0  0  0
  9 10  1  0  0  0  0
M  END
