
 OpenBabel03222517353D

 11 13  0  0  0  0  0  0  0  0999 V2000
    0.8905   -0.1350    1.6772 C   0  0  0  0  0  0  0  0  0  0  0  0
    1.4186    1.1934    0.5401 C   0  0  0  0  0  0  0  0  0  0  0  0
    0.2869    1.6344   -0.9796 C   0  0  0  0  0  0  0  0  0  0  0  0
    0.5092    0.5323   -1.9569 C   0  0  0  0  0  0  0  0  0  0  0  0
    0.1655   -0.3418   -0.7401 C   0  0  0  0  0  0  0  0  0  0  0  0
   -0.3360   -1.7320   -0.4784 C   0  0  0  0  0  0  0  0  0  0  0  0
   -1.1276   -1.6899    0.8607 C   0  0  0  0  0  0  0  0  0  0  0  0
   -0.7466   -0.4920    1.8463 C   0  0  0  0  0  0  0  0  0  0  0  0
   -1.5308    0.7294    1.4997 C   0  0  0  0  0  0  0  0  0  0  0  0
   -0.8104    0.8415    0.2522 C   0  0  0  0  0  0  0  0  0  0  0  0
   -1.4642    1.3618   -0.9625 C   0  0  0  0  0  0  0  0  0  0  0  0
  1  2  1  0  0  0  0
  1  6  1  0  0  0  0
  2  3  1  0  0  0  0
  3  4  1  0  0  0  0
  3 10  1  0  0  0  0
  4  5  1  0  0  0  0
  5  6  1  0  0  0  0
  6  7  1  0  0  0  0
  7  8  1  0  0  0  0
  7 11  1  0  0  0  0
  8  9  1  0  0  0  0
  9 10  1  0  0  0  0
 10 11  1  0  0  0  0
M  END
