
 OpenBabel03222517363D

 10 12  0  0  0  0  0  0  0  0999 V2000
   -2.5643    0.7217    0.2715 C   0  0  0  0  0  0  0  0  0  0  0  0
   -2.5643   -0.7216   -0.2715 C   0  0  0  0  0  0  0  0  0  0  0  0
   -1.2823   -1.4765    0.1139 C   0  0  0  0  0  0  0  0  0  0  0  0
   -0.1069   -0.6677   -0.4219 C   0  0  0  0  0  0  0  0  0  0  0  0
   -0.1069    0.6678    0.4221 C   0  0  0  0  0  0  0  0  0  0  0  0
   -1.2823    1.4765   -0.1138 C   0  0  0  0  0  0  0  0  0  0  0  0
    1.2934    0.8631   -0.1149 C   0  0  0  0  0  0  0  0  0  0  0  0
    2.6802    0.6518    0.4439 C   0  0  0  0  0  0  0  0  0  0  0  0
    2.6799   -0.6520   -0.4443 C   0  0  0  0  0  0  0  0  0  0  0  0
    1.2933   -0.8629    0.1152 C   0  0  0  0  0  0  0  0  0  0  0  0
  1  2  1  0  0  0  0
  1  6  1  0  0  0  0
  2  3  1  0  0  0  0
  3  4  1  0  0  0  0
  4  5  1  0  0  0  0
  4 10  1  0  0  0  0
  5  6  1  0  0  0  0
  5  7  1  0  0  0  0
  7  8  1  0  0  0  0
  7 10  1  0  0  0  0
  8  9  1  0  0  0  0
  9 10  1  0  0  0  0
M  END
