
 OpenBabel03222517373D

 13 15  0  0  0  0  0  0  0  0999 V2000
   -2.8195    0.6854   -0.4413 C   0  0  0  0  0  0  0  0  0  0  0  0
   -2.8042   -0.8287   -0.6446 C   0  0  0  0  0  0  0  0  0  0  0  0
   -1.3846   -1.3399   -0.8341 C   0  0  0  0  0  0  0  0  0  0  0  0
   -0.5803   -1.0082    0.4180 C   0  0  0  0  0  0  0  0  0  0  0  0
   -0.6187    0.5205    0.7877 C   0  0  0  0  0  0  0  0  0  0  0  0
   -2.0025    1.1336    0.7481 C   0  0  0  0  0  0  0  0  0  0  0  0
    0.5264    1.3617    0.1703 C   0  0  0  0  0  0  0  0  0  0  0  0
    1.9016    0.6858    0.4738 C   0  0  0  0  0  0  0  0  0  0  0  0
    2.7966    0.3150   -0.7802 C   0  0  0  0  0  0  0  0  0  0  0  0
    3.0021   -1.2174   -0.7416 C   0  0  0  0  0  0  0  0  0  0  0  0
    1.5497   -1.6796   -0.9218 C   0  0  0  0  0  0  0  0  0  0  0  0
    0.8597   -1.5867    0.4451 C   0  0  0  0  0  0  0  0  0  0  0  0
    1.6110   -0.5901    1.3706 C   0  0  0  0  0  0  0  0  0  0  0  0
  1  2  1  0  0  0  0
  1  6  1  0  0  0  0
  2  3  1  0  0  0  0
  3  4  1  0  0  0  0
  4  5  1  0  0  0  0
  4 13  1  0  0  0  0
  5  6  1  0  0  0  0
  5  7  1  0  0  0  0
  7  8  1  0  0  0  0
  8  9  1  0  0  0  0
  9 10  1  0  0  0  0
 10 11  1  0  0  0  0
 10 13  1  0  0  0  0
 11 12  1  0  0  0  0
 12 13  1  0  0  0  0
M  END
