
 OpenBabel03222517373D

 12 15  0  0  0  0  0  0  0  0999 V2000
    2.3930   -0.1035    0.1037 C   0  0  0  0  0  0  0  0  0  0  0  0
    1.2689   -1.1023    0.2755 C   0  0  0  0  0  0  0  0  0  0  0  0
    0.0423   -0.3040   -0.1829 C   0  0  0  0  0  0  0  0  0  0  0  0
    0.2294    1.1837   -0.2778 C   0  0  0  0  0  0  0  0  0  0  0  0
    1.7388    1.2627    0.0980 C   0  0  0  0  0  0  0  0  0  0  0  0
   -1.2519    1.6145    0.2879 C   0  0  0  0  0  0  0  0  0  0  0  0
   -1.8859    0.5164    1.0915 C   0  0  0  0  0  0  0  0  0  0  0  0
   -1.4426   -0.5410    0.1057 C   0  0  0  0  0  0  0  0  0  0  0  0
   -2.1373    0.0420   -1.1655 C   0  0  0  0  0  0  0  0  0  0  0  0
   -1.6514    0.4454   -2.6604 C   0  0  0  0  0  0  0  0  0  0  0  0
   -2.8989    1.4060   -2.3210 C   0  0  0  0  0  0  0  0  0  0  0  0
   -2.1444    1.6845   -0.9881 C   0  0  0  0  0  0  0  0  0  0  0  0
  1  2  1  0  0  0  0
  1  5  1  0  0  0  0
  2  3  1  0  0  0  0
  3  4  1  0  0  0  0
  3  9  1  0  0  0  0
  4  5  1  0  0  0  0
  4  6  1  0  0  0  0
  6  7  1  0  0  0  0
  6 10  1  0  0  0  0
  7  8  1  0  0  0  0
  8  9  1  0  0  0  0
  9 10  1  0  0  0  0
 10 11  1  0  0  0  0
 10 12  1  0  0  0  0
 11 12  1  0  0  0  0
M  END
