
 OpenBabel03222517353D

 10 11  0  0  0  0  0  0  0  0999 V2000
    1.0560   -1.7719   -0.8869 C   0  0  0  0  0  0  0  0  0  0  0  0
    2.1628   -0.5128   -0.0380 C   0  0  0  0  0  0  0  0  0  0  0  0
    1.6604    1.1369    0.5344 C   0  0  0  0  0  0  0  0  0  0  0  0
    0.4601    1.7610   -0.3034 C   0  0  0  0  0  0  0  0  0  0  0  0
   -1.0068    2.0297    0.2409 C   0  0  0  0  0  0  0  0  0  0  0  0
   -1.8569    0.7511    0.7821 C   0  0  0  0  0  0  0  0  0  0  0  0
   -1.5999   -0.6156   -0.0280 C   0  0  0  0  0  0  0  0  0  0  0  0
   -0.7715   -1.8982   -0.6027 C   0  0  0  0  0  0  0  0  0  0  0  0
   -0.2249   -0.3413    0.3378 C   0  0  0  0  0  0  0  0  0  0  0  0
    0.2327    0.5483   -1.0378 C   0  0  0  0  0  0  0  0  0  0  0  0
  1  2  1  0  0  0  0
  1  9  1  0  0  0  0
  2  3  1  0  0  0  0
  3  4  1  0  0  0  0
  4  5  1  0  0  0  0
  4 10  1  0  0  0  0
  5  6  1  0  0  0  0
  6  7  1  0  0  0  0
  7  8  1  0  0  0  0
  8  9  1  0  0  0  0
  8 10  1  0  0  0  0
M  END
