
 OpenBabel03222517353D

  9 10  0  0  0  0  0  0  0  0999 V2000
   -1.5864    0.7469    0.1412 C   0  0  0  0  0  0  0  0  0  0  0  0
   -1.5918   -0.7597   -0.1104 C   0  0  0  0  0  0  0  0  0  0  0  0
   -0.3778   -1.4996    0.4530 C   0  0  0  0  0  0  0  0  0  0  0  0
    0.8488   -1.2741   -0.4159 C   0  0  0  0  0  0  0  0  0  0  0  0
    1.6218   -0.0440   -0.0399 C   0  0  0  0  0  0  0  0  0  0  0  0
    0.8688    1.1901    0.4200 C   0  0  0  0  0  0  0  0  0  0  0  0
   -0.3668    1.4708   -0.4237 C   0  0  0  0  0  0  0  0  0  0  0  0
    3.0075   -0.1615    0.5405 C   0  0  0  0  0  0  0  0  0  0  0  0
    2.8281    0.1797   -0.9294 C   0  0  0  0  0  0  0  0  0  0  0  0
  1  2  1  0  0  0  0
  1  7  1  0  0  0  0
  2  3  1  0  0  0  0
  3  4  1  0  0  0  0
  4  5  1  0  0  0  0
  5  6  1  0  0  0  0
  5  8  1  0  0  0  0
  5  9  1  0  0  0  0
  6  7  1  0  0  0  0
  8  9  1  0  0  0  0
M  END
