
 OpenBabel03222517383D

 15 18  0  0  0  0  0  0  0  0999 V2000
    0.1889    1.7027    0.3877 C   0  0  0  0  0  0  0  0  0  0  0  0
    0.4514    3.1402   -0.1359 C   0  0  0  0  0  0  0  0  0  0  0  0
    1.6967    2.7556    0.4149 C   0  0  0  0  0  0  0  0  0  0  0  0
    1.6633    1.4160   -0.6305 C   0  0  0  0  0  0  0  0  0  0  0  0
    2.0986    0.1544    0.8524 C   0  0  0  0  0  0  0  0  0  0  0  0
    1.9754    0.6793   -0.4256 C   0  0  0  0  0  0  0  0  0  0  0  0
    2.0471   -1.3924    0.3338 C   0  0  0  0  0  0  0  0  0  0  0  0
    0.8881   -1.2950   -0.8621 C   0  0  0  0  0  0  0  0  0  0  0  0
   -0.0851   -1.5159    0.0956 C   0  0  0  0  0  0  0  0  0  0  0  0
   -1.2329   -2.3003   -0.1219 C   0  0  0  0  0  0  0  0  0  0  0  0
   -1.2192   -1.1876    1.4007 C   0  0  0  0  0  0  0  0  0  0  0  0
   -2.6434   -0.9394    1.2655 C   0  0  0  0  0  0  0  0  0  0  0  0
   -2.8000   -0.2239   -0.0694 C   0  0  0  0  0  0  0  0  0  0  0  0
   -1.2294   -0.1850   -0.5832 C   0  0  0  0  0  0  0  0  0  0  0  0
    0.1535    0.2625   -1.2638 C   0  0  0  0  0  0  0  0  0  0  0  0
  1  2  1  0  0  0  0
  1 15  1  0  0  0  0
  2  3  1  0  0  0  0
  3  4  1  0  0  0  0
  4  5  1  0  0  0  0
  4 14  1  0  0  0  0
  5  6  1  0  0  0  0
  6  7  1  0  0  0  0
  6 12  1  0  0  0  0
  7  8  1  0  0  0  0
  7 11  1  0  0  0  0
  8  9  1  0  0  0  0
  9 10  1  0  0  0  0
 10 11  1  0  0  0  0
 10 12  1  0  0  0  0
 12 13  1  0  0  0  0
 13 14  1  0  0  0  0
 14 15  1  0  0  0  0
M  END
