
 OpenBabel03222517363D

 10 12  0  0  0  0  0  0  0  0999 V2000
   -2.1257   -0.0577   -0.0551 C   0  0  0  0  0  0  0  0  0  0  0  0
   -1.3252   -1.3043    0.3204 C   0  0  0  0  0  0  0  0  0  0  0  0
    0.0426   -1.3347   -0.3780 C   0  0  0  0  0  0  0  0  0  0  0  0
    0.8318   -0.0687   -0.0810 C   0  0  0  0  0  0  0  0  0  0  0  0
    1.8523   -0.1341    1.0368 C   0  0  0  0  0  0  0  0  0  0  0  0
    2.3261   -0.0821   -0.3892 C   0  0  0  0  0  0  0  0  0  0  0  0
    0.0101    1.1909   -0.3516 C   0  0  0  0  0  0  0  0  0  0  0  0
   -1.3472    1.1938    0.3336 C   0  0  0  0  0  0  0  0  0  0  0  0
    0.5458    2.5692   -0.6328 C   0  0  0  0  0  0  0  0  0  0  0  0
    0.0736    1.7103   -1.7855 C   0  0  0  0  0  0  0  0  0  0  0  0
  1  2  1  0  0  0  0
  1  8  1  0  0  0  0
  2  3  1  0  0  0  0
  3  4  1  0  0  0  0
  4  5  1  0  0  0  0
  4  6  1  0  0  0  0
  4  7  1  0  0  0  0
  5  6  1  0  0  0  0
  7  8  1  0  0  0  0
  7  9  1  0  0  0  0
  7 10  1  0  0  0  0
  9 10  1  0  0  0  0
M  END
