
 OpenBabel03222517373D

 13 16  0  0  0  0  0  0  0  0999 V2000
    3.1504   -0.8542    0.2636 C   0  0  0  0  0  0  0  0  0  0  0  0
    3.1531    0.5317   -0.3518 C   0  0  0  0  0  0  0  0  0  0  0  0
    1.7814    0.8190    0.1889 C   0  0  0  0  0  0  0  0  0  0  0  0
    0.6487    1.6424   -0.3579 C   0  0  0  0  0  0  0  0  0  0  0  0
   -0.4927    0.6290    0.6275 C   0  0  0  0  0  0  0  0  0  0  0  0
   -2.2221   -0.3670    0.8102 C   0  0  0  0  0  0  0  0  0  0  0  0
   -3.4327    0.1419   -0.0170 C   0  0  0  0  0  0  0  0  0  0  0  0
   -2.6612    1.3092    0.3004 C   0  0  0  0  0  0  0  0  0  0  0  0
   -1.5532    0.2295   -0.7148 C   0  0  0  0  0  0  0  0  0  0  0  0
   -1.4027   -1.2343   -0.0238 C   0  0  0  0  0  0  0  0  0  0  0  0
   -0.1059   -0.0246   -0.7297 C   0  0  0  0  0  0  0  0  0  0  0  0
    1.0815   -0.6111   -0.0379 C   0  0  0  0  0  0  0  0  0  0  0  0
    2.1354   -1.4418   -0.7097 C   0  0  0  0  0  0  0  0  0  0  0  0
  1  2  1  0  0  0  0
  1 13  1  0  0  0  0
  2  3  1  0  0  0  0
  3  4  1  0  0  0  0
  3 12  1  0  0  0  0
  4  5  1  0  0  0  0
  5  6  1  0  0  0  0
  5  9  1  0  0  0  0
  6  7  1  0  0  0  0
  6 11  1  0  0  0  0
  7  8  1  0  0  0  0
  8  9  1  0  0  0  0
  9 10  1  0  0  0  0
 10 11  1  0  0  0  0
 10 12  1  0  0  0  0
 12 13  1  0  0  0  0
M  END
