
 OpenBabel03222517363D

 12 14  0  0  0  0  0  0  0  0999 V2000
    1.9309    0.7838    0.6214 C   0  0  0  0  0  0  0  0  0  0  0  0
    0.8256    0.5646    1.6417 C   0  0  0  0  0  0  0  0  0  0  0  0
    0.9767    1.6334    2.7260 C   0  0  0  0  0  0  0  0  0  0  0  0
    1.0457    3.2668    2.2009 C   0  0  0  0  0  0  0  0  0  0  0  0
    2.0780    3.3970    1.0481 C   0  0  0  0  0  0  0  0  0  0  0  0
    2.7608    2.0825    0.8081 C   0  0  0  0  0  0  0  0  0  0  0  0
    1.1834    4.3413    0.0158 C   0  0  0  0  0  0  0  0  0  0  0  0
    0.2905    3.8835   -1.2050 C   0  0  0  0  0  0  0  0  0  0  0  0
   -0.1170    2.5613   -0.7324 C   0  0  0  0  0  0  0  0  0  0  0  0
   -1.1246    2.9421    0.4199 C   0  0  0  0  0  0  0  0  0  0  0  0
   -0.9317    4.3759    1.2382 C   0  0  0  0  0  0  0  0  0  0  0  0
    0.4426    4.6344    1.3422 C   0  0  0  0  0  0  0  0  0  0  0  0
  1  2  1  0  0  0  0
  1 10  1  0  0  0  0
  2  3  1  0  0  0  0
  3  4  1  0  0  0  0
  4  5  1  0  0  0  0
  4  9  1  0  0  0  0
  5  6  1  0  0  0  0
  6  7  1  0  0  0  0
  6 11  1  0  0  0  0
  6 12  1  0  0  0  0
  7  8  1  0  0  0  0
  8  9  1  0  0  0  0
  9 10  1  0  0  0  0
 11 12  1  0  0  0  0
M  END
