
 OpenBabel03222517373D

 11 13  0  0  0  0  0  0  0  0999 V2000
    2.3320   -0.5279   -0.0565 C   0  0  0  0  0  0  0  0  0  0  0  0
    1.4859   -1.8107    0.1252 C   0  0  0  0  0  0  0  0  0  0  0  0
    0.2856   -1.5823    1.0434 C   0  0  0  0  0  0  0  0  0  0  0  0
   -0.3497   -0.3139    0.5754 C   0  0  0  0  0  0  0  0  0  0  0  0
   -0.5651   -0.4842   -1.2172 C   0  0  0  0  0  0  0  0  0  0  0  0
   -1.9731   -0.0542   -1.2813 C   0  0  0  0  0  0  0  0  0  0  0  0
   -1.6097    1.0390   -0.2641 C   0  0  0  0  0  0  0  0  0  0  0  0
   -1.7098    0.1257    0.9818 C   0  0  0  0  0  0  0  0  0  0  0  0
    0.1970    1.5703   -0.2266 C   0  0  0  0  0  0  0  0  0  0  0  0
    1.6583    0.7449   -0.8281 C   0  0  0  0  0  0  0  0  0  0  0  0
    0.3488    0.9960    1.1304 C   0  0  0  0  0  0  0  0  0  0  0  0
  1  2  1  0  0  0  0
  1 10  1  0  0  0  0
  2  3  1  0  0  0  0
  3  4  1  0  0  0  0
  4  5  1  0  0  0  0
  4  8  1  0  0  0  0
  4 11  1  0  0  0  0
  5  6  1  0  0  0  0
  6  7  1  0  0  0  0
  7  8  1  0  0  0  0
  7  9  1  0  0  0  0
  9 10  1  0  0  0  0
  9 11  1  0  0  0  0
M  END
