
 OpenBabel03222517353D

  8 11  0  0  0  0  0  0  0  0999 V2000
    0.5409   -0.3076    0.0360 C   0  0  0  0  0  0  0  0  0  0  0  0
    0.2852    0.4223    1.2527 C   0  0  0  0  0  0  0  0  0  0  0  0
   -0.4812   -0.9113    1.0820 C   0  0  0  0  0  0  0  0  0  0  0  0
   -1.3442   -0.4364    2.3884 C   0  0  0  0  0  0  0  0  0  0  0  0
   -1.2722    0.9169    3.2472 C   0  0  0  0  0  0  0  0  0  0  0  0
   -0.5446    2.1953    2.7550 C   0  0  0  0  0  0  0  0  0  0  0  0
   -0.6666    1.5721    1.3505 C   0  0  0  0  0  0  0  0  0  0  0  0
   -1.8048    0.8244    1.8517 C   0  0  0  0  0  0  0  0  0  0  0  0
  1  2  1  0  0  0  0
  1  8  1  0  0  0  0
  2  3  1  0  0  0  0
  2  6  1  0  0  0  0
  3  4  1  0  0  0  0
  3  8  1  0  0  0  0
  4  5  1  0  0  0  0
  5  6  1  0  0  0  0
  5  7  1  0  0  0  0
  6  7  1  0  0  0  0
  7  8  1  0  0  0  0
M  END
