
 OpenBabel03222517363D

 11 14  0  0  0  0  0  0  0  0999 V2000
    1.2150    0.3302   -1.7123 C   0  0  0  0  0  0  0  0  0  0  0  0
    2.2891    0.8300   -0.5853 C   0  0  0  0  0  0  0  0  0  0  0  0
    1.0778    0.6995    0.3125 C   0  0  0  0  0  0  0  0  0  0  0  0
   -0.9424    1.1069    0.3097 C   0  0  0  0  0  0  0  0  0  0  0  0
   -1.9848    0.7400   -0.6381 C   0  0  0  0  0  0  0  0  0  0  0  0
   -1.7223   -0.7023   -0.9223 C   0  0  0  0  0  0  0  0  0  0  0  0
   -0.1101   -0.9077   -1.0506 C   0  0  0  0  0  0  0  0  0  0  0  0
    0.2505   -1.2936    0.7320 C   0  0  0  0  0  0  0  0  0  0  0  0
   -0.3258   -0.6712    1.9735 C   0  0  0  0  0  0  0  0  0  0  0  0
    0.6136    0.4063    1.4021 C   0  0  0  0  0  0  0  0  0  0  0  0
    0.2447    1.8549    0.3526 C   0  0  0  0  0  0  0  0  0  0  0  0
  1  2  1  0  0  0  0
  1 11  1  0  0  0  0
  2  3  1  0  0  0  0
  3  4  1  0  0  0  0
  3  8  1  0  0  0  0
  4  5  1  0  0  0  0
  4 10  1  0  0  0  0
  5  6  1  0  0  0  0
  6  7  1  0  0  0  0
  7  8  1  0  0  0  0
  7  9  1  0  0  0  0
  8  9  1  0  0  0  0
  9 10  1  0  0  0  0
 10 11  1  0  0  0  0
M  END
