
 OpenBabel03222517353D

  9 12  0  0  0  0  0  0  0  0999 V2000
   -1.7178    0.9693   -0.7574 C   0  0  0  0  0  0  0  0  0  0  0  0
   -0.7606   -0.1361   -1.4406 C   0  0  0  0  0  0  0  0  0  0  0  0
   -1.4970   -0.4078   -0.2371 C   0  0  0  0  0  0  0  0  0  0  0  0
   -0.4368   -0.8945    0.6936 C   0  0  0  0  0  0  0  0  0  0  0  0
    0.5284   -1.7213   -0.1630 C   0  0  0  0  0  0  0  0  0  0  0  0
    0.7938   -0.5600   -1.1062 C   0  0  0  0  0  0  0  0  0  0  0  0
    1.4446    0.4019   -0.1369 C   0  0  0  0  0  0  0  0  0  0  0  0
    0.9253    1.6641    0.2045 C   0  0  0  0  0  0  0  0  0  0  0  0
    0.5252    0.3404    1.0528 C   0  0  0  0  0  0  0  0  0  0  0  0
  1  2  1  0  0  0  0
  1  8  1  0  0  0  0
  2  3  1  0  0  0  0
  2  9  1  0  0  0  0
  3  4  1  0  0  0  0
  4  5  1  0  0  0  0
  4  9  1  0  0  0  0
  5  6  1  0  0  0  0
  6  7  1  0  0  0  0
  6  9  1  0  0  0  0
  7  8  1  0  0  0  0
  8  9  1  0  0  0  0
M  END
