
 OpenBabel03222517373D

 12 16  0  0  0  0  0  0  0  0999 V2000
   -1.9376    0.3180   -0.6139 C   0  0  0  0  0  0  0  0  0  0  0  0
   -1.1508    1.5433    0.3363 C   0  0  0  0  0  0  0  0  0  0  0  0
    0.4517    2.3232    0.4126 C   0  0  0  0  0  0  0  0  0  0  0  0
    1.5182    1.4711   -0.3382 C   0  0  0  0  0  0  0  0  0  0  0  0
    2.4190    0.1811   -0.5642 C   0  0  0  0  0  0  0  0  0  0  0  0
    1.5203   -1.1752   -0.5803 C   0  0  0  0  0  0  0  0  0  0  0  0
    0.1916   -1.3824   -1.5023 C   0  0  0  0  0  0  0  0  0  0  0  0
   -1.1642   -1.1397   -0.5943 C   0  0  0  0  0  0  0  0  0  0  0  0
   -0.6502   -1.0599    0.8436 C   0  0  0  0  0  0  0  0  0  0  0  0
   -0.6213    0.4613    1.2360 C   0  0  0  0  0  0  0  0  0  0  0  0
    0.5334    0.4559    0.1823 C   0  0  0  0  0  0  0  0  0  0  0  0
    0.8658   -0.9176    0.7425 C   0  0  0  0  0  0  0  0  0  0  0  0
  1  2  1  0  0  0  0
  1  8  1  0  0  0  0
  2  3  1  0  0  0  0
  2 10  1  0  0  0  0
  3  4  1  0  0  0  0
  4  5  1  0  0  0  0
  4 11  1  0  0  0  0
  5  6  1  0  0  0  0
  6  7  1  0  0  0  0
  6 12  1  0  0  0  0
  7  8  1  0  0  0  0
  8  9  1  0  0  0  0
  9 10  1  0  0  0  0
  9 12  1  0  0  0  0
 10 11  1  0  0  0  0
 11 12  1  0  0  0  0
M  END
