
 OpenBabel03222517383D

 14 17  0  0  0  0  0  0  0  0999 V2000
   -2.0192    0.4379    1.4482 C   0  0  0  0  0  0  0  0  0  0  0  0
   -1.3496    1.2783    0.2286 C   0  0  0  0  0  0  0  0  0  0  0  0
    0.0577    1.2808    0.5587 C   0  0  0  0  0  0  0  0  0  0  0  0
    1.3777    1.8166    0.1295 C   0  0  0  0  0  0  0  0  0  0  0  0
    2.0603    0.9735    1.2934 C   0  0  0  0  0  0  0  0  0  0  0  0
    2.6386   -0.2524    0.3930 C   0  0  0  0  0  0  0  0  0  0  0  0
    1.3373   -1.0246    0.1467 C   0  0  0  0  0  0  0  0  0  0  0  0
    1.1170   -1.6680   -1.2570 C   0  0  0  0  0  0  0  0  0  0  0  0
   -0.3204   -2.1540   -1.3194 C   0  0  0  0  0  0  0  0  0  0  0  0
   -0.5556   -2.1733    0.1354 C   0  0  0  0  0  0  0  0  0  0  0  0
    0.8595   -2.3544    0.8951 C   0  0  0  0  0  0  0  0  0  0  0  0
    0.4627   -0.0972    1.0573 C   0  0  0  0  0  0  0  0  0  0  0  0
    0.6919    0.3870    2.3753 C   0  0  0  0  0  0  0  0  0  0  0  0
   -0.9279   -0.3222    2.4339 C   0  0  0  0  0  0  0  0  0  0  0  0
  1  2  1  0  0  0  0
  1 10  1  0  0  0  0
  2  3  1  0  0  0  0
  3  4  1  0  0  0  0
  3  8  1  0  0  0  0
  4  5  1  0  0  0  0
  5  6  1  0  0  0  0
  6  7  1  0  0  0  0
  7  8  1  0  0  0  0
  7 12  1  0  0  0  0
  8  9  1  0  0  0  0
  9 10  1  0  0  0  0
  9 11  1  0  0  0  0
 11 12  1  0  0  0  0
 12 13  1  0  0  0  0
 12 14  1  0  0  0  0
 13 14  1  0  0  0  0
M  END
