
 OpenBabel03222517363D

 12 14  0  0  0  0  0  0  0  0999 V2000
   -2.3286   -1.0107    0.2671 C   0  0  0  0  0  0  0  0  0  0  0  0
   -1.6059   -2.1459   -0.4223 C   0  0  0  0  0  0  0  0  0  0  0  0
   -0.3609   -2.4968    0.3610 C   0  0  0  0  0  0  0  0  0  0  0  0
    0.8860   -2.0685   -0.3535 C   0  0  0  0  0  0  0  0  0  0  0  0
    2.0145   -1.6809    0.5084 C   0  0  0  0  0  0  0  0  0  0  0  0
    1.4351   -0.6504   -0.4530 C   0  0  0  0  0  0  0  0  0  0  0  0
    0.8139    0.5916    0.1944 C   0  0  0  0  0  0  0  0  0  0  0  0
    1.5162    1.9714    0.0798 C   0  0  0  0  0  0  0  0  0  0  0  0
    0.4361    2.9513    0.5568 C   0  0  0  0  0  0  0  0  0  0  0  0
   -0.8302    2.4126   -0.0461 C   0  0  0  0  0  0  0  0  0  0  0  0
   -0.7124    0.9199    0.2601 C   0  0  0  0  0  0  0  0  0  0  0  0
   -1.9168    0.2758   -0.4124 C   0  0  0  0  0  0  0  0  0  0  0  0
  1  2  1  0  0  0  0
  1 12  1  0  0  0  0
  2  3  1  0  0  0  0
  3  4  1  0  0  0  0
  4  5  1  0  0  0  0
  4  6  1  0  0  0  0
  5  6  1  0  0  0  0
  6  7  1  0  0  0  0
  7  8  1  0  0  0  0
  8  9  1  0  0  0  0
  8 10  1  0  0  0  0
  9 10  1  0  0  0  0
 10 11  1  0  0  0  0
 11 12  1  0  0  0  0
M  END
