
 OpenBabel03222517363D

 10 13  0  0  0  0  0  0  0  0999 V2000
   -0.8218    1.0964    1.2983 C   0  0  0  0  0  0  0  0  0  0  0  0
    0.7354    0.8350    1.2281 C   0  0  0  0  0  0  0  0  0  0  0  0
    1.2333    1.1754   -0.1888 C   0  0  0  0  0  0  0  0  0  0  0  0
    0.4104    0.1785   -0.9864 C   0  0  0  0  0  0  0  0  0  0  0  0
   -0.9985    0.7034   -1.2026 C   0  0  0  0  0  0  0  0  0  0  0  0
   -1.6144    0.3380    0.1606 C   0  0  0  0  0  0  0  0  0  0  0  0
   -1.2472   -1.1567    0.2107 C   0  0  0  0  0  0  0  0  0  0  0  0
    0.2456   -1.0536   -0.0501 C   0  0  0  0  0  0  0  0  0  0  0  0
    0.9845   -0.6846    1.2246 C   0  0  0  0  0  0  0  0  0  0  0  0
    0.8879   -1.1848   -1.4031 C   0  0  0  0  0  0  0  0  0  0  0  0
  1  2  1  0  0  0  0
  1  6  1  0  0  0  0
  2  3  1  0  0  0  0
  2  9  1  0  0  0  0
  3  4  1  0  0  0  0
  4  5  1  0  0  0  0
  4  8  1  0  0  0  0
  4 10  1  0  0  0  0
  5  6  1  0  0  0  0
  6  7  1  0  0  0  0
  7  8  1  0  0  0  0
  8  9  1  0  0  0  0
  8 10  1  0  0  0  0
M  END
