
 OpenBabel03222517353D

  9 12  0  0  0  0  0  0  0  0999 V2000
    1.2437    1.8113    1.0786 C   0  0  0  0  0  0  0  0  0  0  0  0
    1.0015    0.9887   -0.1407 C   0  0  0  0  0  0  0  0  0  0  0  0
   -0.2692    1.5340    0.5524 C   0  0  0  0  0  0  0  0  0  0  0  0
   -1.2040   -0.0053    0.8565 C   0  0  0  0  0  0  0  0  0  0  0  0
   -0.0017   -0.9033    1.3470 C   0  0  0  0  0  0  0  0  0  0  0  0
    1.0144   -0.7688    0.1024 C   0  0  0  0  0  0  0  0  0  0  0  0
    0.1621   -1.2536   -1.0394 C   0  0  0  0  0  0  0  0  0  0  0  0
   -0.8023   -0.4595   -1.9056 C   0  0  0  0  0  0  0  0  0  0  0  0
   -1.3391   -0.8739   -0.5853 C   0  0  0  0  0  0  0  0  0  0  0  0
  1  2  1  0  0  0  0
  1  5  1  0  0  0  0
  2  3  1  0  0  0  0
  2  8  1  0  0  0  0
  3  4  1  0  0  0  0
  4  5  1  0  0  0  0
  4  9  1  0  0  0  0
  5  6  1  0  0  0  0
  6  7  1  0  0  0  0
  6  9  1  0  0  0  0
  7  8  1  0  0  0  0
  8  9  1  0  0  0  0
M  END
