
 OpenBabel03222517373D

 11 15  0  0  0  0  0  0  0  0999 V2000
   -1.3644   -0.8252    1.2481 C   0  0  0  0  0  0  0  0  0  0  0  0
   -2.3063    0.3834    0.3136 C   0  0  0  0  0  0  0  0  0  0  0  0
   -1.0696    0.7483   -0.2746 C   0  0  0  0  0  0  0  0  0  0  0  0
   -0.1244    1.5601   -1.0393 C   0  0  0  0  0  0  0  0  0  0  0  0
    1.5040    0.7223   -1.0289 C   0  0  0  0  0  0  0  0  0  0  0  0
    1.7189   -0.4678    0.1642 C   0  0  0  0  0  0  0  0  0  0  0  0
    0.5358   -0.7652    1.4469 C   0  0  0  0  0  0  0  0  0  0  0  0
    0.9566   -1.2323   -0.7193 C   0  0  0  0  0  0  0  0  0  0  0  0
   -0.5289   -0.6291   -0.8317 C   0  0  0  0  0  0  0  0  0  0  0  0
    0.5784    0.0084   -1.4430 C   0  0  0  0  0  0  0  0  0  0  0  0
    0.9366    1.4937   -0.1960 C   0  0  0  0  0  0  0  0  0  0  0  0
  1  2  1  0  0  0  0
  1  9  1  0  0  0  0
  2  3  1  0  0  0  0
  3  4  1  0  0  0  0
  3 11  1  0  0  0  0
  4  5  1  0  0  0  0
  4 10  1  0  0  0  0
  5  6  1  0  0  0  0
  5 10  1  0  0  0  0
  6  7  1  0  0  0  0
  7  8  1  0  0  0  0
  7 11  1  0  0  0  0
  8  9  1  0  0  0  0
  8 11  1  0  0  0  0
  9 10  1  0  0  0  0
M  END
