
 OpenBabel03222517373D

 14 16  0  0  0  0  0  0  0  0999 V2000
    2.6892   -0.9777    0.0369 C   0  0  0  0  0  0  0  0  0  0  0  0
    1.4154   -1.8027    0.0197 C   0  0  0  0  0  0  0  0  0  0  0  0
    0.2102   -1.1547    0.7736 C   0  0  0  0  0  0  0  0  0  0  0  0
   -0.3185    0.2963    0.3199 C   0  0  0  0  0  0  0  0  0  0  0  0
   -0.5106    0.0232   -1.2830 C   0  0  0  0  0  0  0  0  0  0  0  0
   -1.9858   -0.0647   -1.4062 C   0  0  0  0  0  0  0  0  0  0  0  0
   -2.2159    1.1652   -0.5066 C   0  0  0  0  0  0  0  0  0  0  0  0
   -0.6941    1.9344   -0.0248 C   0  0  0  0  0  0  0  0  0  0  0  0
    0.7922    3.1415   -0.7753 C   0  0  0  0  0  0  0  0  0  0  0  0
    2.5990    3.0256   -0.3098 C   0  0  0  0  0  0  0  0  0  0  0  0
    2.5840    2.2154    0.9002 C   0  0  0  0  0  0  0  0  0  0  0  0
    1.8337    1.1262    0.2406 C   0  0  0  0  0  0  0  0  0  0  0  0
    2.4525    0.2123   -0.7753 C   0  0  0  0  0  0  0  0  0  0  0  0
    0.7517    0.8929    1.2133 C   0  0  0  0  0  0  0  0  0  0  0  0
  1  2  1  0  0  0  0
  1 13  1  0  0  0  0
  2  3  1  0  0  0  0
  3  4  1  0  0  0  0
  4  5  1  0  0  0  0
  4  8  1  0  0  0  0
  4 14  1  0  0  0  0
  5  6  1  0  0  0  0
  6  7  1  0  0  0  0
  7  8  1  0  0  0  0
  8  9  1  0  0  0  0
  9 10  1  0  0  0  0
 10 11  1  0  0  0  0
 11 12  1  0  0  0  0
 12 13  1  0  0  0  0
 12 14  1  0  0  0  0
M  END
