
 OpenBabel03222517383D

 15 17  0  0  0  0  0  0  0  0999 V2000
   -1.9085    2.7429    0.5923 C   0  0  0  0  0  0  0  0  0  0  0  0
   -0.6208    3.0022   -0.2968 C   0  0  0  0  0  0  0  0  0  0  0  0
    0.4398    1.9248   -0.2487 C   0  0  0  0  0  0  0  0  0  0  0  0
    0.1435    0.7075   -1.2729 C   0  0  0  0  0  0  0  0  0  0  0  0
   -1.6168    0.1918   -1.7887 C   0  0  0  0  0  0  0  0  0  0  0  0
   -2.7318    0.3646   -0.4963 C   0  0  0  0  0  0  0  0  0  0  0  0
   -3.1228    1.6756    0.2709 C   0  0  0  0  0  0  0  0  0  0  0  0
   -1.7627    0.0712    0.4213 C   0  0  0  0  0  0  0  0  0  0  0  0
   -1.3861   -1.3778    0.4081 C   0  0  0  0  0  0  0  0  0  0  0  0
   -0.0468   -1.5395   -0.2517 C   0  0  0  0  0  0  0  0  0  0  0  0
    0.3696   -2.9183    0.1737 C   0  0  0  0  0  0  0  0  0  0  0  0
    1.7901   -2.8102   -0.2189 C   0  0  0  0  0  0  0  0  0  0  0  0
    2.3041   -1.9199    0.9323 C   0  0  0  0  0  0  0  0  0  0  0  0
    2.4911   -0.5897    0.2780 C   0  0  0  0  0  0  0  0  0  0  0  0
    0.9839   -0.3232   -0.3664 C   0  0  0  0  0  0  0  0  0  0  0  0
  1  2  1  0  0  0  0
  1  8  1  0  0  0  0
  2  3  1  0  0  0  0
  3  4  1  0  0  0  0
  4  5  1  0  0  0  0
  4 15  1  0  0  0  0
  5  6  1  0  0  0  0
  6  7  1  0  0  0  0
  6  9  1  0  0  0  0
  7  8  1  0  0  0  0
  9 10  1  0  0  0  0
  9 14  1  0  0  0  0
 10 11  1  0  0  0  0
 11 12  1  0  0  0  0
 12 13  1  0  0  0  0
 13 14  1  0  0  0  0
 14 15  1  0  0  0  0
M  END
