
 OpenBabel03222517353D

  9 12  0  0  0  0  0  0  0  0999 V2000
   -1.5952   -1.9454   -0.2177 C   0  0  0  0  0  0  0  0  0  0  0  0
   -1.2160   -0.5737    0.1802 C   0  0  0  0  0  0  0  0  0  0  0  0
   -0.1237   -1.9139    0.2301 C   0  0  0  0  0  0  0  0  0  0  0  0
    1.1896   -1.1341   -0.1244 C   0  0  0  0  0  0  0  0  0  0  0  0
    0.7613   -0.4033   -1.4687 C   0  0  0  0  0  0  0  0  0  0  0  0
   -0.2604    0.6556   -0.9090 C   0  0  0  0  0  0  0  0  0  0  0  0
    0.8726    1.4613   -0.0048 C   0  0  0  0  0  0  0  0  0  0  0  0
    2.3686    1.0669    0.5017 C   0  0  0  0  0  0  0  0  0  0  0  0
    1.1945    0.3202    0.8987 C   0  0  0  0  0  0  0  0  0  0  0  0
  1  2  1  0  0  0  0
  1  5  1  0  0  0  0
  2  3  1  0  0  0  0
  2  9  1  0  0  0  0
  3  4  1  0  0  0  0
  4  5  1  0  0  0  0
  4  8  1  0  0  0  0
  5  6  1  0  0  0  0
  6  7  1  0  0  0  0
  6  9  1  0  0  0  0
  7  8  1  0  0  0  0
  8  9  1  0  0  0  0
M  END
