
 OpenBabel03222517363D

 12 14  0  0  0  0  0  0  0  0999 V2000
   -0.0162    2.8671    0.9444 C   0  0  0  0  0  0  0  0  0  0  0  0
   -1.3915    2.6075    0.3044 C   0  0  0  0  0  0  0  0  0  0  0  0
   -2.0202    1.3394    0.9674 C   0  0  0  0  0  0  0  0  0  0  0  0
   -1.2795    0.3392    0.2474 C   0  0  0  0  0  0  0  0  0  0  0  0
    0.2385    0.4391    0.6622 C   0  0  0  0  0  0  0  0  0  0  0  0
    0.9489    1.7070    1.0660 C   0  0  0  0  0  0  0  0  0  0  0  0
    0.3739    0.0075   -0.7985 C   0  0  0  0  0  0  0  0  0  0  0  0
    1.8308   -0.2983   -1.0174 C   0  0  0  0  0  0  0  0  0  0  0  0
    2.1226   -1.5578   -0.2238 C   0  0  0  0  0  0  0  0  0  0  0  0
    0.9640   -2.5410   -0.5584 C   0  0  0  0  0  0  0  0  0  0  0  0
   -0.3774   -2.3725    0.1840 C   0  0  0  0  0  0  0  0  0  0  0  0
   -0.9300   -1.0782   -0.2787 C   0  0  0  0  0  0  0  0  0  0  0  0
  1  2  1  0  0  0  0
  1  7  1  0  0  0  0
  2  3  1  0  0  0  0
  3  4  1  0  0  0  0
  4  5  1  0  0  0  0
  4 12  1  0  0  0  0
  5  6  1  0  0  0  0
  6  7  1  0  0  0  0
  6  8  1  0  0  0  0
  8  9  1  0  0  0  0
  9 10  1  0  0  0  0
  9 11  1  0  0  0  0
 10 11  1  0  0  0  0
 11 12  1  0  0  0  0
M  END
