
 OpenBabel03222517353D

 11 13  0  0  0  0  0  0  0  0999 V2000
    1.7864   -0.0997    0.1500 C   0  0  0  0  0  0  0  0  0  0  0  0
    1.4936    1.0299    1.0737 C   0  0  0  0  0  0  0  0  0  0  0  0
    0.0619    0.6850    1.2191 C   0  0  0  0  0  0  0  0  0  0  0  0
   -1.4648    1.0164    1.0271 C   0  0  0  0  0  0  0  0  0  0  0  0
   -1.6856   -0.2710   -0.1728 C   0  0  0  0  0  0  0  0  0  0  0  0
   -1.9657    0.8415   -1.1672 C   0  0  0  0  0  0  0  0  0  0  0  0
   -0.5192    1.2536   -1.7322 C   0  0  0  0  0  0  0  0  0  0  0  0
    0.8464    0.1153   -1.4039 C   0  0  0  0  0  0  0  0  0  0  0  0
    0.6042   -1.3847   -1.3383 C   0  0  0  0  0  0  0  0  0  0  0  0
   -0.4348   -1.4348   -0.1037 C   0  0  0  0  0  0  0  0  0  0  0  0
   -0.3655   -0.8812    1.2992 C   0  0  0  0  0  0  0  0  0  0  0  0
  1  2  1  0  0  0  0
  1 10  1  0  0  0  0
  2  3  1  0  0  0  0
  3  4  1  0  0  0  0
  3  8  1  0  0  0  0
  4  5  1  0  0  0  0
  5  6  1  0  0  0  0
  5 11  1  0  0  0  0
  6  7  1  0  0  0  0
  7  8  1  0  0  0  0
  8  9  1  0  0  0  0
  9 10  1  0  0  0  0
 10 11  1  0  0  0  0
M  END
