
 OpenBabel03222517373D

 14 16  0  0  0  0  0  0  0  0999 V2000
    2.6579   -0.7604   -0.2320 C   0  0  0  0  0  0  0  0  0  0  0  0
    2.2989    0.7989   -0.9728 C   0  0  0  0  0  0  0  0  0  0  0  0
    1.2268    2.1254   -0.1634 C   0  0  0  0  0  0  0  0  0  0  0  0
    0.2037    1.6598    1.4452 C   0  0  0  0  0  0  0  0  0  0  0  0
    0.9687    0.9913    2.5793 C   0  0  0  0  0  0  0  0  0  0  0  0
    1.4719    0.4975    1.3053 C   0  0  0  0  0  0  0  0  0  0  0  0
   -0.0101    0.1430   -0.1349 C   0  0  0  0  0  0  0  0  0  0  0  0
   -0.4214    0.3679   -1.6034 C   0  0  0  0  0  0  0  0  0  0  0  0
   -1.8962   -0.2072   -1.6650 C   0  0  0  0  0  0  0  0  0  0  0  0
   -2.5514    0.3367   -0.4084 C   0  0  0  0  0  0  0  0  0  0  0  0
   -1.4246   -0.0778    0.4795 C   0  0  0  0  0  0  0  0  0  0  0  0
   -0.7356    0.1901    1.6084 C   0  0  0  0  0  0  0  0  0  0  0  0
    0.2028   -1.4984    1.4735 C   0  0  0  0  0  0  0  0  0  0  0  0
    1.5192   -1.8571    0.2206 C   0  0  0  0  0  0  0  0  0  0  0  0
  1  2  1  0  0  0  0
  1 14  1  0  0  0  0
  2  3  1  0  0  0  0
  3  4  1  0  0  0  0
  4  5  1  0  0  0  0
  4 12  1  0  0  0  0
  5  6  1  0  0  0  0
  6  7  1  0  0  0  0
  7  8  1  0  0  0  0
  8  9  1  0  0  0  0
  8 12  1  0  0  0  0
  9 10  1  0  0  0  0
 10 11  1  0  0  0  0
 11 12  1  0  0  0  0
 12 13  1  0  0  0  0
 13 14  1  0  0  0  0
M  END
