
 OpenBabel03222517353D

  9 10  0  0  0  0  0  0  0  0999 V2000
   -0.8921    0.8258   -0.7462 C   0  0  0  0  0  0  0  0  0  0  0  0
   -1.2331    2.1158   -0.3759 C   0  0  0  0  0  0  0  0  0  0  0  0
   -0.4183    0.9287    0.4318 C   0  0  0  0  0  0  0  0  0  0  0  0
   -0.7439   -0.3654    1.4445 C   0  0  0  0  0  0  0  0  0  0  0  0
   -0.8007   -1.7421    0.6993 C   0  0  0  0  0  0  0  0  0  0  0  0
    0.5907   -1.6527    0.1507 C   0  0  0  0  0  0  0  0  0  0  0  0
    1.5172   -0.4801   -0.0010 C   0  0  0  0  0  0  0  0  0  0  0  0
    1.2672    0.9343   -0.3968 C   0  0  0  0  0  0  0  0  0  0  0  0
    0.7586    0.0026   -1.1039 C   0  0  0  0  0  0  0  0  0  0  0  0
  1  2  1  0  0  0  0
  1  6  1  0  0  0  0
  2  3  1  0  0  0  0
  3  4  1  0  0  0  0
  4  5  1  0  0  0  0
  4  7  1  0  0  0  0
  4  9  1  0  0  0  0
  5  6  1  0  0  0  0
  7  8  1  0  0  0  0
  8  9  1  0  0  0  0
M  END
