
 OpenBabel03222517373D

 11 14  0  0  0  0  0  0  0  0999 V2000
    0.4096   -1.7320    0.6591 C   0  0  0  0  0  0  0  0  0  0  0  0
    1.1359   -0.4642    1.1383 C   0  0  0  0  0  0  0  0  0  0  0  0
    1.8781    0.1370   -0.0585 C   0  0  0  0  0  0  0  0  0  0  0  0
    0.8676    0.4912   -1.1592 C   0  0  0  0  0  0  0  0  0  0  0  0
    0.1910   -0.7757   -1.6989 C   0  0  0  0  0  0  0  0  0  0  0  0
   -0.5212   -1.5072   -0.5485 C   0  0  0  0  0  0  0  0  0  0  0  0
   -1.7619   -0.7056   -0.1336 C   0  0  0  0  0  0  0  0  0  0  0  0
   -1.5380    0.7832   -0.1539 C   0  0  0  0  0  0  0  0  0  0  0  0
   -0.5831    1.3956    0.8310 C   0  0  0  0  0  0  0  0  0  0  0  0
    0.2063    0.5753    1.7890 C   0  0  0  0  0  0  0  0  0  0  0  0
   -0.2111    1.4080   -0.6317 C   0  0  0  0  0  0  0  0  0  0  0  0
  1  2  1  0  0  0  0
  1  6  1  0  0  0  0
  2  3  1  0  0  0  0
  2 10  1  0  0  0  0
  3  4  1  0  0  0  0
  4  5  1  0  0  0  0
  4 11  1  0  0  0  0
  5  6  1  0  0  0  0
  6  7  1  0  0  0  0
  7  8  1  0  0  0  0
  8  9  1  0  0  0  0
  8 11  1  0  0  0  0
  9 10  1  0  0  0  0
  9 11  1  0  0  0  0
M  END
