
 OpenBabel03222517383D

 13 16  0  0  0  0  0  0  0  0999 V2000
    2.1620    1.1546   -0.8166 C   0  0  0  0  0  0  0  0  0  0  0  0
    2.6271   -0.0206    0.0832 C   0  0  0  0  0  0  0  0  0  0  0  0
    1.6209   -1.2212    0.3579 C   0  0  0  0  0  0  0  0  0  0  0  0
    0.1027   -0.9452    0.9332 C   0  0  0  0  0  0  0  0  0  0  0  0
   -0.7457   -2.0159    1.4301 C   0  0  0  0  0  0  0  0  0  0  0  0
   -2.0880   -1.8394    0.6480 C   0  0  0  0  0  0  0  0  0  0  0  0
   -2.4724   -0.1892   -0.5670 C   0  0  0  0  0  0  0  0  0  0  0  0
   -3.1629   -0.9427    0.3772 C   0  0  0  0  0  0  0  0  0  0  0  0
   -2.5504   -1.2485   -0.8436 C   0  0  0  0  0  0  0  0  0  0  0  0
   -0.6638   -0.4552   -0.1585 C   0  0  0  0  0  0  0  0  0  0  0  0
    0.0275    0.4613   -1.0984 C   0  0  0  0  0  0  0  0  0  0  0  0
    0.8118    1.5537   -0.3608 C   0  0  0  0  0  0  0  0  0  0  0  0
   -0.7101    0.2998    1.3213 C   0  0  0  0  0  0  0  0  0  0  0  0
  1  2  1  0  0  0  0
  1 12  1  0  0  0  0
  2  3  1  0  0  0  0
  3  4  1  0  0  0  0
  4  5  1  0  0  0  0
  4  7  1  0  0  0  0
  4 11  1  0  0  0  0
  5  6  1  0  0  0  0
  6  7  1  0  0  0  0
  7  8  1  0  0  0  0
  8  9  1  0  0  0  0
  8 13  1  0  0  0  0
  9 10  1  0  0  0  0
 10 11  1  0  0  0  0
 11 12  1  0  0  0  0
 11 13  1  0  0  0  0
M  END
