
 OpenBabel03222517363D

 12 14  0  0  0  0  0  0  0  0999 V2000
   -2.3042   -0.9223    0.3136 C   0  0  0  0  0  0  0  0  0  0  0  0
   -1.6069   -2.0678   -0.3923 C   0  0  0  0  0  0  0  0  0  0  0  0
   -0.3821   -2.4642    0.3972 C   0  0  0  0  0  0  0  0  0  0  0  0
    0.8692   -2.0250   -0.2820 C   0  0  0  0  0  0  0  0  0  0  0  0
    1.9794   -1.6296    0.6123 C   0  0  0  0  0  0  0  0  0  0  0  0
    1.4045   -0.6168   -0.3678 C   0  0  0  0  0  0  0  0  0  0  0  0
    0.8017    0.6523    0.2058 C   0  0  0  0  0  0  0  0  0  0  0  0
    1.4781    1.9222   -0.3920 C   0  0  0  0  0  0  0  0  0  0  0  0
    0.5675    2.9944    0.1795 C   0  0  0  0  0  0  0  0  0  0  0  0
   -0.7290    2.4866   -0.4002 C   0  0  0  0  0  0  0  0  0  0  0  0
   -0.7421    1.0675    0.2026 C   0  0  0  0  0  0  0  0  0  0  0  0
   -1.9484    0.3592   -0.4050 C   0  0  0  0  0  0  0  0  0  0  0  0
  1  2  1  0  0  0  0
  1 12  1  0  0  0  0
  2  3  1  0  0  0  0
  3  4  1  0  0  0  0
  4  5  1  0  0  0  0
  4  6  1  0  0  0  0
  5  6  1  0  0  0  0
  6  7  1  0  0  0  0
  7  8  1  0  0  0  0
  7 11  1  0  0  0  0
  8  9  1  0  0  0  0
  9 10  1  0  0  0  0
 10 11  1  0  0  0  0
 11 12  1  0  0  0  0
M  END
