
 OpenBabel03222517363D

 11 13  0  0  0  0  0  0  0  0999 V2000
   -2.5555    0.7434    0.2489 C   0  0  0  0  0  0  0  0  0  0  0  0
   -1.3131    1.5383   -0.1973 C   0  0  0  0  0  0  0  0  0  0  0  0
   -0.0467    0.8093    0.2574 C   0  0  0  0  0  0  0  0  0  0  0  0
    1.2487    1.4541   -0.1878 C   0  0  0  0  0  0  0  0  0  0  0  0
    2.3809    0.5385    0.2771 C   0  0  0  0  0  0  0  0  0  0  0  0
    2.2387   -0.9004   -0.2654 C   0  0  0  0  0  0  0  0  0  0  0  0
    0.8877   -1.6744    0.1275 C   0  0  0  0  0  0  0  0  0  0  0  0
   -0.4907   -2.6025   -0.3044 C   0  0  0  0  0  0  0  0  0  0  0  0
   -1.2028   -1.3394    0.2751 C   0  0  0  0  0  0  0  0  0  0  0  0
   -2.5001   -0.7170   -0.2479 C   0  0  0  0  0  0  0  0  0  0  0  0
   -0.0713   -0.5712   -0.3792 C   0  0  0  0  0  0  0  0  0  0  0  0
  1  2  1  0  0  0  0
  1 10  1  0  0  0  0
  2  3  1  0  0  0  0
  3  4  1  0  0  0  0
  3 11  1  0  0  0  0
  4  5  1  0  0  0  0
  5  6  1  0  0  0  0
  6  7  1  0  0  0  0
  7  8  1  0  0  0  0
  7 11  1  0  0  0  0
  8  9  1  0  0  0  0
  9 10  1  0  0  0  0
  9 11  1  0  0  0  0
M  END
