
 OpenBabel03222517353D

 10 11  0  0  0  0  0  0  0  0999 V2000
    0.4230    2.3492    0.2858 C   0  0  0  0  0  0  0  0  0  0  0  0
    1.4106    1.5806   -0.5973 C   0  0  0  0  0  0  0  0  0  0  0  0
    1.8980    0.4017    0.2175 C   0  0  0  0  0  0  0  0  0  0  0  0
    0.7858   -0.6379    0.5266 C   0  0  0  0  0  0  0  0  0  0  0  0
    1.0241   -1.9926   -0.1726 C   0  0  0  0  0  0  0  0  0  0  0  0
   -0.2408   -2.1959   -1.0100 C   0  0  0  0  0  0  0  0  0  0  0  0
   -1.3200   -1.7683    0.0276 C   0  0  0  0  0  0  0  0  0  0  0  0
   -0.7660   -0.3672    0.2192 C   0  0  0  0  0  0  0  0  0  0  0  0
   -1.4834    0.8343    0.8238 C   0  0  0  0  0  0  0  0  0  0  0  0
   -1.0208    2.0275   -0.0642 C   0  0  0  0  0  0  0  0  0  0  0  0
  1  2  1  0  0  0  0
  1 10  1  0  0  0  0
  2  3  1  0  0  0  0
  3  4  1  0  0  0  0
  4  5  1  0  0  0  0
  5  6  1  0  0  0  0
  5  8  1  0  0  0  0
  6  7  1  0  0  0  0
  7  8  1  0  0  0  0
  8  9  1  0  0  0  0
  9 10  1  0  0  0  0
M  END
