
 OpenBabel03222517373D

 11 14  0  0  0  0  0  0  0  0999 V2000
    1.5628   -0.4358    0.0533 C   0  0  0  0  0  0  0  0  0  0  0  0
    0.8503   -0.9440    1.1450 C   0  0  0  0  0  0  0  0  0  0  0  0
    0.2775   -2.1844    0.9280 C   0  0  0  0  0  0  0  0  0  0  0  0
   -0.5020   -1.0223    0.2215 C   0  0  0  0  0  0  0  0  0  0  0  0
   -1.8817   -1.3802   -0.0211 C   0  0  0  0  0  0  0  0  0  0  0  0
   -0.4479   -0.3793   -0.0292 C   0  0  0  0  0  0  0  0  0  0  0  0
   -0.9349    0.8122    1.2435 C   0  0  0  0  0  0  0  0  0  0  0  0
    0.2474    1.6701    0.4488 C   0  0  0  0  0  0  0  0  0  0  0  0
    0.1762    2.4313   -0.7997 C   0  0  0  0  0  0  0  0  0  0  0  0
    0.7294    1.1439   -1.3159 C   0  0  0  0  0  0  0  0  0  0  0  0
    0.0837   -0.5210   -1.7230 C   0  0  0  0  0  0  0  0  0  0  0  0
  1  2  1  0  0  0  0
  1 10  1  0  0  0  0
  2  3  1  0  0  0  0
  2  8  1  0  0  0  0
  3  4  1  0  0  0  0
  4  5  1  0  0  0  0
  4  7  1  0  0  0  0
  4 11  1  0  0  0  0
  5  6  1  0  0  0  0
  6  7  1  0  0  0  0
  7  8  1  0  0  0  0
  7  9  1  0  0  0  0
  9 10  1  0  0  0  0
 10 11  1  0  0  0  0
M  END
