
 OpenBabel03222517383D

 14 17  0  0  0  0  0  0  0  0999 V2000
   -1.3281    3.0032    0.1545 C   0  0  0  0  0  0  0  0  0  0  0  0
    0.0769    3.1933   -0.3020 C   0  0  0  0  0  0  0  0  0  0  0  0
    0.7183    1.8449    0.0314 C   0  0  0  0  0  0  0  0  0  0  0  0
   -0.1561    0.3953   -0.8217 C   0  0  0  0  0  0  0  0  0  0  0  0
   -1.4589    0.7301   -0.2110 C   0  0  0  0  0  0  0  0  0  0  0  0
   -1.8005    2.0178   -0.8545 C   0  0  0  0  0  0  0  0  0  0  0  0
   -0.8425   -0.0978    0.9598 C   0  0  0  0  0  0  0  0  0  0  0  0
   -2.0161   -1.3430    0.5013 C   0  0  0  0  0  0  0  0  0  0  0  0
   -1.3992   -2.3262   -0.4348 C   0  0  0  0  0  0  0  0  0  0  0  0
   -0.2135   -1.4683   -0.5810 C   0  0  0  0  0  0  0  0  0  0  0  0
    1.2684   -1.7475   -0.6411 C   0  0  0  0  0  0  0  0  0  0  0  0
    2.2801   -2.2246    0.2379 C   0  0  0  0  0  0  0  0  0  0  0  0
    2.7594   -0.9733    0.8152 C   0  0  0  0  0  0  0  0  0  0  0  0
    1.0107   -0.6733    0.7712 C   0  0  0  0  0  0  0  0  0  0  0  0
  1  2  1  0  0  0  0
  1  6  1  0  0  0  0
  2  3  1  0  0  0  0
  3  4  1  0  0  0  0
  4  5  1  0  0  0  0
  4 14  1  0  0  0  0
  5  6  1  0  0  0  0
  5  7  1  0  0  0  0
  7  8  1  0  0  0  0
  8  9  1  0  0  0  0
  9 10  1  0  0  0  0
  9 14  1  0  0  0  0
 10 11  1  0  0  0  0
 10 13  1  0  0  0  0
 11 12  1  0  0  0  0
 12 13  1  0  0  0  0
 13 14  1  0  0  0  0
M  END
