
 OpenBabel03222517373D

 14 16  0  0  0  0  0  0  0  0999 V2000
   -3.0980    0.4940    0.2043 C   0  0  0  0  0  0  0  0  0  0  0  0
   -1.8869    1.2391    0.7150 C   0  0  0  0  0  0  0  0  0  0  0  0
   -0.8745    0.1997    1.1288 C   0  0  0  0  0  0  0  0  0  0  0  0
   -0.5077   -0.7362   -0.0908 C   0  0  0  0  0  0  0  0  0  0  0  0
   -1.7105   -1.4096   -0.6684 C   0  0  0  0  0  0  0  0  0  0  0  0
   -2.7756   -0.3981   -1.0000 C   0  0  0  0  0  0  0  0  0  0  0  0
    0.4024    0.0099   -1.1495 C   0  0  0  0  0  0  0  0  0  0  0  0
    1.5613    0.3271   -0.2205 C   0  0  0  0  0  0  0  0  0  0  0  0
    2.9281    0.9871   -0.4701 C   0  0  0  0  0  0  0  0  0  0  0  0
    3.7556    0.2475    0.6234 C   0  0  0  0  0  0  0  0  0  0  0  0
    2.8717    0.4224    1.9479 C   0  0  0  0  0  0  0  0  0  0  0  0
    2.0107   -0.7886    2.1497 C   0  0  0  0  0  0  0  0  0  0  0  0
    1.6186   -1.0480    0.6719 C   0  0  0  0  0  0  0  0  0  0  0  0
    0.4153   -1.8225    0.3842 C   0  0  0  0  0  0  0  0  0  0  0  0
  1  2  1  0  0  0  0
  1  6  1  0  0  0  0
  2  3  1  0  0  0  0
  3  4  1  0  0  0  0
  4  5  1  0  0  0  0
  4  7  1  0  0  0  0
  4 14  1  0  0  0  0
  5  6  1  0  0  0  0
  7  8  1  0  0  0  0
  8  9  1  0  0  0  0
  9 10  1  0  0  0  0
 10 11  1  0  0  0  0
 10 14  1  0  0  0  0
 11 12  1  0  0  0  0
 12 13  1  0  0  0  0
 13 14  1  0  0  0  0
M  END
