
 OpenBabel03222517373D

 13 16  0  0  0  0  0  0  0  0999 V2000
   -2.3874   -0.8396    0.2941 C   0  0  0  0  0  0  0  0  0  0  0  0
   -1.3813   -1.7844   -0.3327 C   0  0  0  0  0  0  0  0  0  0  0  0
   -0.0233   -1.4997    0.3029 C   0  0  0  0  0  0  0  0  0  0  0  0
    1.0832   -2.2692   -0.3991 C   0  0  0  0  0  0  0  0  0  0  0  0
    2.3949   -1.7227    0.1301 C   0  0  0  0  0  0  0  0  0  0  0  0
    2.5774   -0.3638   -0.5718 C   0  0  0  0  0  0  0  0  0  0  0  0
    1.6710    0.6328    0.1521 C   0  0  0  0  0  0  0  0  0  0  0  0
    1.3124    1.9685   -0.4617 C   0  0  0  0  0  0  0  0  0  0  0  0
    0.7401    3.0052    0.5131 C   0  0  0  0  0  0  0  0  0  0  0  0
   -0.1805    2.1893   -0.3619 C   0  0  0  0  0  0  0  0  0  0  0  0
   -0.8305    1.0414    0.3328 C   0  0  0  0  0  0  0  0  0  0  0  0
   -2.0912    0.5123   -0.3363 C   0  0  0  0  0  0  0  0  0  0  0  0
    0.2997    0.0025    0.5941 C   0  0  0  0  0  0  0  0  0  0  0  0
  1  2  1  0  0  0  0
  1 12  1  0  0  0  0
  2  3  1  0  0  0  0
  3  4  1  0  0  0  0
  3 13  1  0  0  0  0
  4  5  1  0  0  0  0
  5  6  1  0  0  0  0
  6  7  1  0  0  0  0
  7  8  1  0  0  0  0
  7 13  1  0  0  0  0
  8  9  1  0  0  0  0
  8 10  1  0  0  0  0
  9 10  1  0  0  0  0
 10 11  1  0  0  0  0
 11 12  1  0  0  0  0
 11 13  1  0  0  0  0
M  END
