
 OpenBabel03222517373D

 13 15  0  0  0  0  0  0  0  0999 V2000
    0.9773   -0.7045   -1.1581 C   0  0  0  0  0  0  0  0  0  0  0  0
    1.0328    0.9551   -0.3704 C   0  0  0  0  0  0  0  0  0  0  0  0
    1.4229    2.0362   -1.3869 C   0  0  0  0  0  0  0  0  0  0  0  0
    0.7698    1.4122   -2.5482 C   0  0  0  0  0  0  0  0  0  0  0  0
   -0.7003    1.0854   -2.0775 C   0  0  0  0  0  0  0  0  0  0  0  0
   -1.2906   -0.5655   -2.6279 C   0  0  0  0  0  0  0  0  0  0  0  0
    0.0539   -1.1579   -2.6530 C   0  0  0  0  0  0  0  0  0  0  0  0
   -1.7184    0.5640   -1.1773 C   0  0  0  0  0  0  0  0  0  0  0  0
   -2.1373    1.4573   -3.0158 C   0  0  0  0  0  0  0  0  0  0  0  0
   -1.3992    2.8387   -3.8380 C   0  0  0  0  0  0  0  0  0  0  0  0
   -1.4564    4.0964   -3.0445 C   0  0  0  0  0  0  0  0  0  0  0  0
   -2.4847    3.6516   -2.1204 C   0  0  0  0  0  0  0  0  0  0  0  0
   -2.1232    2.2736   -1.8226 C   0  0  0  0  0  0  0  0  0  0  0  0
  1  2  1  0  0  0  0
  1  8  1  0  0  0  0
  2  3  1  0  0  0  0
  3  4  1  0  0  0  0
  4  5  1  0  0  0  0
  5  6  1  0  0  0  0
  5 10  1  0  0  0  0
  6  7  1  0  0  0  0
  6  9  1  0  0  0  0
  7  8  1  0  0  0  0
  9 10  1  0  0  0  0
 10 11  1  0  0  0  0
 10 13  1  0  0  0  0
 11 12  1  0  0  0  0
 12 13  1  0  0  0  0
M  END
