
 OpenBabel03222517363D

 10 12  0  0  0  0  0  0  0  0999 V2000
    0.9456    0.2397   -0.2746 C   0  0  0  0  0  0  0  0  0  0  0  0
   -0.0513    1.2698   -0.6235 C   0  0  0  0  0  0  0  0  0  0  0  0
    0.6828    2.0521   -1.6802 C   0  0  0  0  0  0  0  0  0  0  0  0
    2.3668    1.9521   -1.6214 C   0  0  0  0  0  0  0  0  0  0  0  0
    2.3347    2.8167   -0.4200 C   0  0  0  0  0  0  0  0  0  0  0  0
    1.7647    1.2779    0.6247 C   0  0  0  0  0  0  0  0  0  0  0  0
    1.3703    4.0950   -1.0149 C   0  0  0  0  0  0  0  0  0  0  0  0
    1.4456    5.1457   -2.2920 C   0  0  0  0  0  0  0  0  0  0  0  0
    2.0093    5.5824   -0.9767 C   0  0  0  0  0  0  0  0  0  0  0  0
    0.1636    3.4821   -1.2609 C   0  0  0  0  0  0  0  0  0  0  0  0
  1  2  1  0  0  0  0
  1  6  1  0  0  0  0
  2  3  1  0  0  0  0
  3  4  1  0  0  0  0
  3 10  1  0  0  0  0
  4  5  1  0  0  0  0
  5  6  1  0  0  0  0
  5  7  1  0  0  0  0
  7  8  1  0  0  0  0
  7  9  1  0  0  0  0
  7 10  1  0  0  0  0
  8  9  1  0  0  0  0
M  END
