
 OpenBabel03222517373D

 13 15  0  0  0  0  0  0  0  0999 V2000
   -2.6211   -1.0302   -0.5078 C   0  0  0  0  0  0  0  0  0  0  0  0
   -2.5681    0.4854   -0.3773 C   0  0  0  0  0  0  0  0  0  0  0  0
   -1.7361    0.9328    0.7903 C   0  0  0  0  0  0  0  0  0  0  0  0
   -0.2419    0.6266    0.8000 C   0  0  0  0  0  0  0  0  0  0  0  0
    0.5919    1.5928   -0.3299 C   0  0  0  0  0  0  0  0  0  0  0  0
    2.2623    1.7009   -1.0093 C   0  0  0  0  0  0  0  0  0  0  0  0
    3.2788    0.2849   -0.3368 C   0  0  0  0  0  0  0  0  0  0  0  0
    2.2205   -0.9364    0.1688 C   0  0  0  0  0  0  0  0  0  0  0  0
    1.3532   -0.2541   -0.7091 C   0  0  0  0  0  0  0  0  0  0  0  0
    1.5832    1.1587    0.5671 C   0  0  0  0  0  0  0  0  0  0  0  0
    0.6085   -0.8950    1.0718 C   0  0  0  0  0  0  0  0  0  0  0  0
   -0.4849   -1.9252    0.7243 C   0  0  0  0  0  0  0  0  0  0  0  0
   -1.2714   -1.7183   -0.6222 C   0  0  0  0  0  0  0  0  0  0  0  0
  1  2  1  0  0  0  0
  1 13  1  0  0  0  0
  2  3  1  0  0  0  0
  3  4  1  0  0  0  0
  4  5  1  0  0  0  0
  4 12  1  0  0  0  0
  5  6  1  0  0  0  0
  5 10  1  0  0  0  0
  6  7  1  0  0  0  0
  7  8  1  0  0  0  0
  8  9  1  0  0  0  0
  8 11  1  0  0  0  0
  9 10  1  0  0  0  0
 11 12  1  0  0  0  0
 12 13  1  0  0  0  0
M  END
