
 OpenBabel03222517373D

 12 15  0  0  0  0  0  0  0  0999 V2000
    3.0900    0.1944   -0.1862 C   0  0  0  0  0  0  0  0  0  0  0  0
    2.1779   -0.9681   -0.6816 C   0  0  0  0  0  0  0  0  0  0  0  0
    0.8154   -0.4778   -0.3517 C   0  0  0  0  0  0  0  0  0  0  0  0
    0.2681    1.1024   -0.8480 C   0  0  0  0  0  0  0  0  0  0  0  0
    0.8354    1.5842    0.3970 C   0  0  0  0  0  0  0  0  0  0  0  0
    2.3107    1.4681   -0.4108 C   0  0  0  0  0  0  0  0  0  0  0  0
   -0.4480    0.5113    1.1052 C   0  0  0  0  0  0  0  0  0  0  0  0
   -0.3433   -0.9370    0.4549 C   0  0  0  0  0  0  0  0  0  0  0  0
   -1.3579   -1.2294   -0.6158 C   0  0  0  0  0  0  0  0  0  0  0  0
   -2.5044   -0.4787   -0.0729 C   0  0  0  0  0  0  0  0  0  0  0  0
   -2.7863    0.9059   -0.4902 C   0  0  0  0  0  0  0  0  0  0  0  0
   -1.9863    0.7261    0.8141 C   0  0  0  0  0  0  0  0  0  0  0  0
  1  2  1  0  0  0  0
  1  6  1  0  0  0  0
  2  3  1  0  0  0  0
  3  4  1  0  0  0  0
  3  8  1  0  0  0  0
  4  5  1  0  0  0  0
  5  6  1  0  0  0  0
  5  7  1  0  0  0  0
  7  8  1  0  0  0  0
  7 12  1  0  0  0  0
  8  9  1  0  0  0  0
  9 10  1  0  0  0  0
 10 11  1  0  0  0  0
 10 12  1  0  0  0  0
 11 12  1  0  0  0  0
M  END
