
 OpenBabel03222517393D

 15 18  0  0  0  0  0  0  0  0999 V2000
   -1.3392    2.8953    0.2123 C   0  0  0  0  0  0  0  0  0  0  0  0
    0.1002    3.1560   -0.0882 C   0  0  0  0  0  0  0  0  0  0  0  0
    0.8020    2.0252    0.6826 C   0  0  0  0  0  0  0  0  0  0  0  0
   -0.0538    0.7582    0.3146 C   0  0  0  0  0  0  0  0  0  0  0  0
   -1.6047    0.8001    0.0355 C   0  0  0  0  0  0  0  0  0  0  0  0
   -1.7512    1.9128   -0.8706 C   0  0  0  0  0  0  0  0  0  0  0  0
   -1.7786   -0.4249   -0.7027 C   0  0  0  0  0  0  0  0  0  0  0  0
   -0.1515   -1.0006   -0.4769 C   0  0  0  0  0  0  0  0  0  0  0  0
   -0.8362   -2.3763   -0.5839 C   0  0  0  0  0  0  0  0  0  0  0  0
    0.3349   -2.3516   -1.4652 C   0  0  0  0  0  0  0  0  0  0  0  0
    1.4371   -2.4735    0.0368 C   0  0  0  0  0  0  0  0  0  0  0  0
    2.7325   -1.6347    0.5262 C   0  0  0  0  0  0  0  0  0  0  0  0
    1.7738   -0.7944   -0.7593 C   0  0  0  0  0  0  0  0  0  0  0  0
    1.2040   -1.1196    1.2295 C   0  0  0  0  0  0  0  0  0  0  0  0
   -0.0530   -0.5913    0.9566 C   0  0  0  0  0  0  0  0  0  0  0  0
  1  2  1  0  0  0  0
  1  6  1  0  0  0  0
  2  3  1  0  0  0  0
  3  4  1  0  0  0  0
  4  5  1  0  0  0  0
  4 14  1  0  0  0  0
  5  6  1  0  0  0  0
  5  7  1  0  0  0  0
  7  8  1  0  0  0  0
  8  9  1  0  0  0  0
  9 10  1  0  0  0  0
  9 14  1  0  0  0  0
  9 15  1  0  0  0  0
 10 11  1  0  0  0  0
 11 12  1  0  0  0  0
 11 15  1  0  0  0  0
 12 13  1  0  0  0  0
 13 14  1  0  0  0  0
M  END
