
 OpenBabel03222517363D

 11 14  0  0  0  0  0  0  0  0999 V2000
    2.8771   -0.0722   -0.0446 C   0  0  0  0  0  0  0  0  0  0  0  0
    2.0146   -1.3191    0.0372 C   0  0  0  0  0  0  0  0  0  0  0  0
    1.0250   -0.1920    1.0237 C   0  0  0  0  0  0  0  0  0  0  0  0
    1.5500    0.4431   -0.5935 C   0  0  0  0  0  0  0  0  0  0  0  0
    0.2469    1.2012   -0.4517 C   0  0  0  0  0  0  0  0  0  0  0  0
   -0.3733    1.9697    0.6740 C   0  0  0  0  0  0  0  0  0  0  0  0
   -0.6703    0.6351    1.2408 C   0  0  0  0  0  0  0  0  0  0  0  0
   -1.8203    0.4351    0.1020 C   0  0  0  0  0  0  0  0  0  0  0  0
   -2.6165   -0.4891   -0.8301 C   0  0  0  0  0  0  0  0  0  0  0  0
   -1.3713   -1.0177   -1.5755 C   0  0  0  0  0  0  0  0  0  0  0  0
   -0.6715   -0.3277   -0.3961 C   0  0  0  0  0  0  0  0  0  0  0  0
  1  2  1  0  0  0  0
  1  4  1  0  0  0  0
  2  3  1  0  0  0  0
  3  4  1  0  0  0  0
  3 11  1  0  0  0  0
  4  5  1  0  0  0  0
  5  6  1  0  0  0  0
  6  7  1  0  0  0  0
  6 11  1  0  0  0  0
  7  8  1  0  0  0  0
  7 10  1  0  0  0  0
  8  9  1  0  0  0  0
  9 10  1  0  0  0  0
 10 11  1  0  0  0  0
M  END
