
 OpenBabel03222517363D

 12 14  0  0  0  0  0  0  0  0999 V2000
   -2.5896    0.2672    0.1417 C   0  0  0  0  0  0  0  0  0  0  0  0
   -2.1626   -0.7617   -0.8748 C   0  0  0  0  0  0  0  0  0  0  0  0
   -0.7365   -0.3638   -1.2510 C   0  0  0  0  0  0  0  0  0  0  0  0
   -0.1031    0.2763   -0.0227 C   0  0  0  0  0  0  0  0  0  0  0  0
   -1.3105    0.4913    0.9751 C   0  0  0  0  0  0  0  0  0  0  0  0
    0.4591    1.6326   -0.0980 C   0  0  0  0  0  0  0  0  0  0  0  0
    1.7478    1.2593   -0.8395 C   0  0  0  0  0  0  0  0  0  0  0  0
    2.7631   -0.4212    0.0582 C   0  0  0  0  0  0  0  0  0  0  0  0
    1.8790   -1.5403   -0.0100 C   0  0  0  0  0  0  0  0  0  0  0  0
    1.4652   -0.1719    0.2126 C   0  0  0  0  0  0  0  0  0  0  0  0
    2.9542    1.1760   -0.7091 C   0  0  0  0  0  0  0  0  0  0  0  0
    2.4955    2.5064   -0.6476 C   0  0  0  0  0  0  0  0  0  0  0  0
  1  2  1  0  0  0  0
  1  5  1  0  0  0  0
  2  3  1  0  0  0  0
  3  4  1  0  0  0  0
  4  5  1  0  0  0  0
  4  6  1  0  0  0  0
  4 10  1  0  0  0  0
  6  7  1  0  0  0  0
  7  8  1  0  0  0  0
  7 12  1  0  0  0  0
  8  9  1  0  0  0  0
  9 10  1  0  0  0  0
 10 11  1  0  0  0  0
 11 12  1  0  0  0  0
M  END
