
 OpenBabel03222517353D

 10 13  0  0  0  0  0  0  0  0999 V2000
    0.9250   -0.6060   -0.4629 C   0  0  0  0  0  0  0  0  0  0  0  0
   -0.0031   -1.7308   -0.2754 C   0  0  0  0  0  0  0  0  0  0  0  0
    1.2047   -2.4564    0.8311 C   0  0  0  0  0  0  0  0  0  0  0  0
    1.9277   -1.8361   -0.5891 C   0  0  0  0  0  0  0  0  0  0  0  0
    2.8209   -2.0298    0.4884 C   0  0  0  0  0  0  0  0  0  0  0  0
    3.9236   -1.2448    0.6575 C   0  0  0  0  0  0  0  0  0  0  0  0
    3.7985    0.2238    0.2479 C   0  0  0  0  0  0  0  0  0  0  0  0
    2.7580    0.7337    1.1970 C   0  0  0  0  0  0  0  0  0  0  0  0
    2.1804   -0.5979    1.6042 C   0  0  0  0  0  0  0  0  0  0  0  0
    2.7315   -1.7993    1.9825 C   0  0  0  0  0  0  0  0  0  0  0  0
  1  2  1  0  0  0  0
  1  4  1  0  0  0  0
  2  3  1  0  0  0  0
  3  4  1  0  0  0  0
  3  9  1  0  0  0  0
  4  5  1  0  0  0  0
  5  6  1  0  0  0  0
  5 10  1  0  0  0  0
  6  7  1  0  0  0  0
  7  8  1  0  0  0  0
  8  9  1  0  0  0  0
  8 10  1  0  0  0  0
  9 10  1  0  0  0  0
M  END
