
 OpenBabel03222517373D

 14 16  0  0  0  0  0  0  0  0999 V2000
    2.0813    0.2346    0.8285 C   0  0  0  0  0  0  0  0  0  0  0  0
    3.1494    0.7004   -0.1659 C   0  0  0  0  0  0  0  0  0  0  0  0
    2.4332    1.8990    0.0896 C   0  0  0  0  0  0  0  0  0  0  0  0
    1.0385    1.0483   -0.8907 C   0  0  0  0  0  0  0  0  0  0  0  0
   -0.4310    2.1080   -0.2997 C   0  0  0  0  0  0  0  0  0  0  0  0
    0.3837    1.2921    0.6408 C   0  0  0  0  0  0  0  0  0  0  0  0
   -2.3688    1.6858   -0.1003 C   0  0  0  0  0  0  0  0  0  0  0  0
   -3.0600    0.2794   -0.6479 C   0  0  0  0  0  0  0  0  0  0  0  0
   -2.6159   -0.8988    0.3441 C   0  0  0  0  0  0  0  0  0  0  0  0
   -1.7486   -2.1420    0.3985 C   0  0  0  0  0  0  0  0  0  0  0  0
   -0.6907   -2.1963   -0.8719 C   0  0  0  0  0  0  0  0  0  0  0  0
    0.7655   -1.0728   -0.6547 C   0  0  0  0  0  0  0  0  0  0  0  0
   -0.0142   -0.7702    0.5569 C   0  0  0  0  0  0  0  0  0  0  0  0
   -1.3774   -0.2607    0.8338 C   0  0  0  0  0  0  0  0  0  0  0  0
  1  2  1  0  0  0  0
  1 13  1  0  0  0  0
  2  3  1  0  0  0  0
  3  4  1  0  0  0  0
  4  5  1  0  0  0  0
  4 14  1  0  0  0  0
  5  6  1  0  0  0  0
  6  7  1  0  0  0  0
  7  8  1  0  0  0  0
  7 14  1  0  0  0  0
  8  9  1  0  0  0  0
  9 10  1  0  0  0  0
 10 11  1  0  0  0  0
 11 12  1  0  0  0  0
 12 13  1  0  0  0  0
 12 14  1  0  0  0  0
M  END
