
 OpenBabel03222517353D

  9 11  0  0  0  0  0  0  0  0999 V2000
   -0.6724    1.0089   -1.3710 C   0  0  0  0  0  0  0  0  0  0  0  0
   -1.7157    0.0574   -0.8972 C   0  0  0  0  0  0  0  0  0  0  0  0
   -1.1374   -0.4504    0.4199 C   0  0  0  0  0  0  0  0  0  0  0  0
    0.1345   -1.3069    0.7067 C   0  0  0  0  0  0  0  0  0  0  0  0
    0.8951   -1.1690   -0.6229 C   0  0  0  0  0  0  0  0  0  0  0  0
    0.7534    0.3240   -1.1682 C   0  0  0  0  0  0  0  0  0  0  0  0
    1.2555    1.0340    0.0729 C   0  0  0  0  0  0  0  0  0  0  0  0
    0.0430    0.7473    1.0579 C   0  0  0  0  0  0  0  0  0  0  0  0
    0.3261   -0.4053    2.0221 C   0  0  0  0  0  0  0  0  0  0  0  0
  1  2  1  0  0  0  0
  1  8  1  0  0  0  0
  2  3  1  0  0  0  0
  3  4  1  0  0  0  0
  3  7  1  0  0  0  0
  4  5  1  0  0  0  0
  4  9  1  0  0  0  0
  5  6  1  0  0  0  0
  6  7  1  0  0  0  0
  7  8  1  0  0  0  0
  8  9  1  0  0  0  0
M  END
