
 OpenBabel03222517363D

 12 14  0  0  0  0  0  0  0  0999 V2000
    0.4102    0.2388   -0.2147 C   0  0  0  0  0  0  0  0  0  0  0  0
    0.0236    0.8109    1.1667 C   0  0  0  0  0  0  0  0  0  0  0  0
    1.1653    1.6819    1.7534 C   0  0  0  0  0  0  0  0  0  0  0  0
    2.4551    1.2884    0.9858 C   0  0  0  0  0  0  0  0  0  0  0  0
    2.5433   -0.2652    1.0318 C   0  0  0  0  0  0  0  0  0  0  0  0
    1.3586   -0.9106    0.1899 C   0  0  0  0  0  0  0  0  0  0  0  0
    2.7778   -0.6964    2.5510 C   0  0  0  0  0  0  0  0  0  0  0  0
    1.5491   -0.9555    3.4516 C   0  0  0  0  0  0  0  0  0  0  0  0
    0.9063    0.3268    4.0055 C   0  0  0  0  0  0  0  0  0  0  0  0
    1.4171    1.5939    3.3077 C   0  0  0  0  0  0  0  0  0  0  0  0
    2.9261    1.6904    3.6377 C   0  0  0  0  0  0  0  0  0  0  0  0
    3.6551    0.3470    3.3312 C   0  0  0  0  0  0  0  0  0  0  0  0
  1  2  1  0  0  0  0
  1  6  1  0  0  0  0
  2  3  1  0  0  0  0
  3  4  1  0  0  0  0
  3 10  1  0  0  0  0
  4  5  1  0  0  0  0
  5  6  1  0  0  0  0
  5  7  1  0  0  0  0
  7  8  1  0  0  0  0
  7 12  1  0  0  0  0
  8  9  1  0  0  0  0
  9 10  1  0  0  0  0
 10 11  1  0  0  0  0
 11 12  1  0  0  0  0
M  END
