
 OpenBabel03222517363D

 13 14  0  0  0  0  0  0  0  0999 V2000
   -2.2809   -0.3528    0.6994 C   0  0  0  0  0  0  0  0  0  0  0  0
   -1.7865   -1.6013   -0.1497 C   0  0  0  0  0  0  0  0  0  0  0  0
   -0.6413   -2.4383    0.5091 C   0  0  0  0  0  0  0  0  0  0  0  0
    0.5677   -2.7198   -0.3717 C   0  0  0  0  0  0  0  0  0  0  0  0
    1.6096   -1.6098   -0.6328 C   0  0  0  0  0  0  0  0  0  0  0  0
    2.3992   -0.7111    0.3527 C   0  0  0  0  0  0  0  0  0  0  0  0
    2.0539    0.7745    0.4890 C   0  0  0  0  0  0  0  0  0  0  0  0
    1.1103    1.3833   -0.5417 C   0  0  0  0  0  0  0  0  0  0  0  0
    0.2553    2.4427    0.1552 C   0  0  0  0  0  0  0  0  0  0  0  0
   -1.2352    2.3226   -0.1878 C   0  0  0  0  0  0  0  0  0  0  0  0
   -2.0234    1.2656    0.6934 C   0  0  0  0  0  0  0  0  0  0  0  0
    0.2753    0.3826   -1.3079 C   0  0  0  0  0  0  0  0  0  0  0  0
    1.1084   -0.7744   -1.7931 C   0  0  0  0  0  0  0  0  0  0  0  0
  1  2  1  0  0  0  0
  1 12  1  0  0  0  0
  2  3  1  0  0  0  0
  3  4  1  0  0  0  0
  4  5  1  0  0  0  0
  5  6  1  0  0  0  0
  6  7  1  0  0  0  0
  6 13  1  0  0  0  0
  7  8  1  0  0  0  0
  8  9  1  0  0  0  0
  9 10  1  0  0  0  0
  9 13  1  0  0  0  0
 10 11  1  0  0  0  0
 11 12  1  0  0  0  0
M  END
