
 OpenBabel03222517353D

 10 13  0  0  0  0  0  0  0  0999 V2000
   -1.5085   -0.9465   -1.8253 C   0  0  0  0  0  0  0  0  0  0  0  0
   -1.0018   -0.9179   -0.5023 C   0  0  0  0  0  0  0  0  0  0  0  0
   -1.3616    0.4689   -0.7448 C   0  0  0  0  0  0  0  0  0  0  0  0
   -0.5323    0.8849    0.5756 C   0  0  0  0  0  0  0  0  0  0  0  0
   -0.5541   -0.3148    1.7650 C   0  0  0  0  0  0  0  0  0  0  0  0
    0.4870   -1.3559    1.2346 C   0  0  0  0  0  0  0  0  0  0  0  0
    0.5315   -0.8485   -0.1665 C   0  0  0  0  0  0  0  0  0  0  0  0
    0.8613    0.5879    0.0837 C   0  0  0  0  0  0  0  0  0  0  0  0
    2.3191    0.8697   -0.4033 C   0  0  0  0  0  0  0  0  0  0  0  0
    1.2362    1.7256   -0.8548 C   0  0  0  0  0  0  0  0  0  0  0  0
  1  2  1  0  0  0  0
  1  5  1  0  0  0  0
  2  3  1  0  0  0  0
  2  9  1  0  0  0  0
  3  4  1  0  0  0  0
  4  5  1  0  0  0  0
  4 10  1  0  0  0  0
  5  6  1  0  0  0  0
  6  7  1  0  0  0  0
  6 10  1  0  0  0  0
  7  8  1  0  0  0  0
  8  9  1  0  0  0  0
  9 10  1  0  0  0  0
M  END
