
 OpenBabel03222517353D

 10 12  0  0  0  0  0  0  0  0999 V2000
    0.2408    1.0925    1.0951 C   0  0  0  0  0  0  0  0  0  0  0  0
    1.2470    1.9384   -0.2870 C   0  0  0  0  0  0  0  0  0  0  0  0
    1.4312    0.6376   -0.1273 C   0  0  0  0  0  0  0  0  0  0  0  0
    1.3577   -0.5959   -0.8621 C   0  0  0  0  0  0  0  0  0  0  0  0
    1.1383   -1.7479   -0.0252 C   0  0  0  0  0  0  0  0  0  0  0  0
   -0.2925   -1.8745   -0.1863 C   0  0  0  0  0  0  0  0  0  0  0  0
   -0.8310   -0.6425    0.6855 C   0  0  0  0  0  0  0  0  0  0  0  0
   -2.2143   -0.3439   -0.1316 C   0  0  0  0  0  0  0  0  0  0  0  0
   -1.6762    0.9500    0.0950 C   0  0  0  0  0  0  0  0  0  0  0  0
   -0.0954    0.6251   -0.9356 C   0  0  0  0  0  0  0  0  0  0  0  0
  1  2  1  0  0  0  0
  1 10  1  0  0  0  0
  2  3  1  0  0  0  0
  3  4  1  0  0  0  0
  3  6  1  0  0  0  0
  4  5  1  0  0  0  0
  5  6  1  0  0  0  0
  6  7  1  0  0  0  0
  7  8  1  0  0  0  0
  7 10  1  0  0  0  0
  8  9  1  0  0  0  0
  9 10  1  0  0  0  0
M  END
