
 OpenBabel03222517353D

 10 12  0  0  0  0  0  0  0  0999 V2000
    2.5323   -0.0279   -0.5788 C   0  0  0  0  0  0  0  0  0  0  0  0
    1.8194    1.2663   -0.9669 C   0  0  0  0  0  0  0  0  0  0  0  0
    1.0725    0.1201   -0.4023 C   0  0  0  0  0  0  0  0  0  0  0  0
    0.5050    0.1641    1.0392 C   0  0  0  0  0  0  0  0  0  0  0  0
   -1.0257    0.0835    0.8654 C   0  0  0  0  0  0  0  0  0  0  0  0
   -1.3951   -1.4494    0.2306 C   0  0  0  0  0  0  0  0  0  0  0  0
   -2.8218   -1.1571   -0.2455 C   0  0  0  0  0  0  0  0  0  0  0  0
   -2.2108   -2.1442   -0.9897 C   0  0  0  0  0  0  0  0  0  0  0  0
   -0.0733   -1.8893   -0.4064 C   0  0  0  0  0  0  0  0  0  0  0  0
    0.2036   -0.6812   -1.3112 C   0  0  0  0  0  0  0  0  0  0  0  0
  1  2  1  0  0  0  0
  1  4  1  0  0  0  0
  2  3  1  0  0  0  0
  3  4  1  0  0  0  0
  3  5  1  0  0  0  0
  3  7  1  0  0  0  0
  5  6  1  0  0  0  0
  6  7  1  0  0  0  0
  7  8  1  0  0  0  0
  7 10  1  0  0  0  0
  8  9  1  0  0  0  0
  9 10  1  0  0  0  0
M  END
