
 OpenBabel03222517353D

  6  8  0  0  0  0  0  0  0  0999 V2000
    1.1005    0.9312    0.0328 C   0  0  0  0  0  0  0  0  0  0  0  0
    1.4923   -0.9849    0.3625 C   0  0  0  0  0  0  0  0  0  0  0  0
   -0.1177   -1.4395   -0.1547 C   0  0  0  0  0  0  0  0  0  0  0  0
   -0.0149    0.0259    0.0600 C   0  0  0  0  0  0  0  0  0  0  0  0
    1.6676   -0.4148   -0.9974 C   0  0  0  0  0  0  0  0  0  0  0  0
    0.9646   -0.3107    1.6236 C   0  0  0  0  0  0  0  0  0  0  0  0
  1  2  1  0  0  0  0
  1  4  1  0  0  0  0
  2  3  1  0  0  0  0
  2  5  1  0  0  0  0
  2  6  1  0  0  0  0
  3  4  1  0  0  0  0
  4  5  1  0  0  0  0
  4  6  1  0  0  0  0
M  END
