
 OpenBabel03222517373D

 15 18  0  0  0  0  0  0  0  0999 V2000
   -3.6389   -0.8876   -0.2483 C   0  0  0  0  0  0  0  0  0  0  0  0
   -2.5945   -1.7700    0.3460 C   0  0  0  0  0  0  0  0  0  0  0  0
   -1.4013   -1.2807   -0.4485 C   0  0  0  0  0  0  0  0  0  0  0  0
   -0.2722   -1.9993    0.1605 C   0  0  0  0  0  0  0  0  0  0  0  0
    0.9609   -1.1851    0.3288 C   0  0  0  0  0  0  0  0  0  0  0  0
    1.8677   -1.7053   -0.7546 C   0  0  0  0  0  0  0  0  0  0  0  0
    3.1300   -1.3363   -0.1066 C   0  0  0  0  0  0  0  0  0  0  0  0
    2.7909    0.1308   -0.0362 C   0  0  0  0  0  0  0  0  0  0  0  0
    1.1842    0.4242    0.4616 C   0  0  0  0  0  0  0  0  0  0  0  0
    1.6407    1.8457   -0.2090 C   0  0  0  0  0  0  0  0  0  0  0  0
    0.8694    2.9590    0.4503 C   0  0  0  0  0  0  0  0  0  0  0  0
   -0.4493    2.5389   -0.0806 C   0  0  0  0  0  0  0  0  0  0  0  0
   -0.4050    1.0226    0.3388 C   0  0  0  0  0  0  0  0  0  0  0  0
   -1.5152    0.2533   -0.4130 C   0  0  0  0  0  0  0  0  0  0  0  0
   -2.9917    0.4523    0.1169 C   0  0  0  0  0  0  0  0  0  0  0  0
  1  2  1  0  0  0  0
  1 15  1  0  0  0  0
  2  3  1  0  0  0  0
  3  4  1  0  0  0  0
  3 14  1  0  0  0  0
  4  5  1  0  0  0  0
  5  6  1  0  0  0  0
  5  9  1  0  0  0  0
  6  7  1  0  0  0  0
  7  8  1  0  0  0  0
  8  9  1  0  0  0  0
  9 10  1  0  0  0  0
  9 13  1  0  0  0  0
 10 11  1  0  0  0  0
 11 12  1  0  0  0  0
 12 13  1  0  0  0  0
 13 14  1  0  0  0  0
 14 15  1  0  0  0  0
M  END
