
 OpenBabel03222517373D

 12 15  0  0  0  0  0  0  0  0999 V2000
   -2.8239    0.3851    0.2511 C   0  0  0  0  0  0  0  0  0  0  0  0
   -1.8161    1.3310    0.9113 C   0  0  0  0  0  0  0  0  0  0  0  0
   -0.6789    0.4937    1.4157 C   0  0  0  0  0  0  0  0  0  0  0  0
   -0.1630   -0.3501    0.2900 C   0  0  0  0  0  0  0  0  0  0  0  0
    0.2542    0.6696   -0.9059 C   0  0  0  0  0  0  0  0  0  0  0  0
    1.6796    0.4656   -0.8110 C   0  0  0  0  0  0  0  0  0  0  0  0
    1.8551   -0.9302   -1.2696 C   0  0  0  0  0  0  0  0  0  0  0  0
    0.3159   -1.8260   -1.5569 C   0  0  0  0  0  0  0  0  0  0  0  0
   -0.9508   -1.3379   -0.4916 C   0  0  0  0  0  0  0  0  0  0  0  0
   -2.2581   -0.5563   -0.8988 C   0  0  0  0  0  0  0  0  0  0  0  0
    2.0931   -0.5591    0.1592 C   0  0  0  0  0  0  0  0  0  0  0  0
    1.0099   -1.1992    0.9026 C   0  0  0  0  0  0  0  0  0  0  0  0
  1  2  1  0  0  0  0
  1 10  1  0  0  0  0
  2  3  1  0  0  0  0
  3  4  1  0  0  0  0
  4  5  1  0  0  0  0
  4  9  1  0  0  0  0
  4 12  1  0  0  0  0
  5  6  1  0  0  0  0
  6  7  1  0  0  0  0
  6 11  1  0  0  0  0
  7  8  1  0  0  0  0
  7 11  1  0  0  0  0
  8  9  1  0  0  0  0
  9 10  1  0  0  0  0
 11 12  1  0  0  0  0
M  END
