
 OpenBabel03222517383D

 14 17  0  0  0  0  0  0  0  0999 V2000
    2.7876   -0.9777   -0.0488 C   0  0  0  0  0  0  0  0  0  0  0  0
    1.4675   -1.8644   -0.3856 C   0  0  0  0  0  0  0  0  0  0  0  0
    0.0626   -1.1712    0.3482 C   0  0  0  0  0  0  0  0  0  0  0  0
   -1.0798   -2.1255   -0.2124 C   0  0  0  0  0  0  0  0  0  0  0  0
   -1.7979   -1.5179   -1.5678 C   0  0  0  0  0  0  0  0  0  0  0  0
   -2.3707   -0.1069   -1.2059 C   0  0  0  0  0  0  0  0  0  0  0  0
   -2.9877    0.5697    0.0672 C   0  0  0  0  0  0  0  0  0  0  0  0
   -1.9545    0.3877    1.1641 C   0  0  0  0  0  0  0  0  0  0  0  0
   -0.6127    0.3582    0.3850 C   0  0  0  0  0  0  0  0  0  0  0  0
    0.2302    1.5848    1.0000 C   0  0  0  0  0  0  0  0  0  0  0  0
    1.5971    1.6067    0.3459 C   0  0  0  0  0  0  0  0  0  0  0  0
    1.8998    0.1483    0.3453 C   0  0  0  0  0  0  0  0  0  0  0  0
    1.0245   -0.8218    1.4324 C   0  0  0  0  0  0  0  0  0  0  0  0
   -0.9842    0.5674   -1.0683 C   0  0  0  0  0  0  0  0  0  0  0  0
  1  2  1  0  0  0  0
  1 12  1  0  0  0  0
  2  3  1  0  0  0  0
  3  4  1  0  0  0  0
  3  9  1  0  0  0  0
  3 13  1  0  0  0  0
  4  5  1  0  0  0  0
  5  6  1  0  0  0  0
  6  7  1  0  0  0  0
  6 14  1  0  0  0  0
  7  8  1  0  0  0  0
  8  9  1  0  0  0  0
  9 10  1  0  0  0  0
  9 14  1  0  0  0  0
 10 11  1  0  0  0  0
 11 12  1  0  0  0  0
 12 13  1  0  0  0  0
M  END
