
 OpenBabel03222517353D

  8 10  0  0  0  0  0  0  0  0999 V2000
   -1.6319   -0.4422   -0.9125 C   0  0  0  0  0  0  0  0  0  0  0  0
   -1.1416   -0.4476    0.4839 C   0  0  0  0  0  0  0  0  0  0  0  0
   -1.2971    1.2451    0.2524 C   0  0  0  0  0  0  0  0  0  0  0  0
   -0.2976    0.8518   -0.8584 C   0  0  0  0  0  0  0  0  0  0  0  0
    1.1009    0.7891    0.0849 C   0  0  0  0  0  0  0  0  0  0  0  0
    2.4344    0.0906    0.1056 C   0  0  0  0  0  0  0  0  0  0  0  0
    1.2430   -0.6555    0.6336 C   0  0  0  0  0  0  0  0  0  0  0  0
    0.1882   -1.3478   -0.0432 C   0  0  0  0  0  0  0  0  0  0  0  0
  1  2  1  0  0  0  0
  1  8  1  0  0  0  0
  2  3  1  0  0  0  0
  2  6  1  0  0  0  0
  3  4  1  0  0  0  0
  4  5  1  0  0  0  0
  4  8  1  0  0  0  0
  5  6  1  0  0  0  0
  6  7  1  0  0  0  0
  7  8  1  0  0  0  0
M  END
