
 OpenBabel03222517373D

 15 16  0  0  0  0  0  0  0  0999 V2000
   -0.7182    0.9928    0.5735 C   0  0  0  0  0  0  0  0  0  0  0  0
   -0.0036    2.7139   -0.1044 C   0  0  0  0  0  0  0  0  0  0  0  0
    1.3002    2.5355    0.4273 C   0  0  0  0  0  0  0  0  0  0  0  0
    1.9900    1.8512   -0.6468 C   0  0  0  0  0  0  0  0  0  0  0  0
    2.3226    0.9725    0.5294 C   0  0  0  0  0  0  0  0  0  0  0  0
    0.9467   -0.4534    0.8895 C   0  0  0  0  0  0  0  0  0  0  0  0
    1.7199   -1.6352    0.2756 C   0  0  0  0  0  0  0  0  0  0  0  0
    1.4777   -2.9852    0.1408 C   0  0  0  0  0  0  0  0  0  0  0  0
    0.1026   -2.5639   -0.2011 C   0  0  0  0  0  0  0  0  0  0  0  0
   -0.7119   -0.9554   -0.3910 C   0  0  0  0  0  0  0  0  0  0  0  0
   -1.0204   -0.9931    1.3990 C   0  0  0  0  0  0  0  0  0  0  0  0
   -2.6450   -0.8628    0.1998 C   0  0  0  0  0  0  0  0  0  0  0  0
   -2.1367    0.4264   -0.4243 C   0  0  0  0  0  0  0  0  0  0  0  0
   -0.0864    0.5237   -1.0085 C   0  0  0  0  0  0  0  0  0  0  0  0
    1.7382   -0.2346   -0.2747 C   0  0  0  0  0  0  0  0  0  0  0  0
  1  2  1  0  0  0  0
  1 14  1  0  0  0  0
  2  3  1  0  0  0  0
  3  4  1  0  0  0  0
  4  5  1  0  0  0  0
  5  6  1  0  0  0  0
  6  7  1  0  0  0  0
  6 15  1  0  0  0  0
  7  8  1  0  0  0  0
  8  9  1  0  0  0  0
  9 10  1  0  0  0  0
 10 11  1  0  0  0  0
 10 15  1  0  0  0  0
 11 12  1  0  0  0  0
 12 13  1  0  0  0  0
 13 14  1  0  0  0  0
M  END
