
 OpenBabel03222517373D

 11 14  0  0  0  0  0  0  0  0999 V2000
   -1.0766    1.8784    0.4974 C   0  0  0  0  0  0  0  0  0  0  0  0
   -2.1260    1.6860   -0.3631 C   0  0  0  0  0  0  0  0  0  0  0  0
   -0.8431    0.5220    0.6717 C   0  0  0  0  0  0  0  0  0  0  0  0
    0.8297    0.9144    0.8862 C   0  0  0  0  0  0  0  0  0  0  0  0
    1.3618    0.2015   -0.5982 C   0  0  0  0  0  0  0  0  0  0  0  0
    2.6357   -0.3927   -0.6018 C   0  0  0  0  0  0  0  0  0  0  0  0
    1.2824   -1.6314   -0.6492 C   0  0  0  0  0  0  0  0  0  0  0  0
   -0.2070   -2.2602    0.5164 C   0  0  0  0  0  0  0  0  0  0  0  0
   -1.3691   -0.8951    0.8262 C   0  0  0  0  0  0  0  0  0  0  0  0
   -2.1694    0.1261    0.1557 C   0  0  0  0  0  0  0  0  0  0  0  0
   -0.4244   -0.5929    0.0226 C   0  0  0  0  0  0  0  0  0  0  0  0
  1  2  1  0  0  0  0
  1  5  1  0  0  0  0
  2  3  1  0  0  0  0
  3  4  1  0  0  0  0
  3 10  1  0  0  0  0
  4  5  1  0  0  0  0
  4  6  1  0  0  0  0
  6  7  1  0  0  0  0
  6 11  1  0  0  0  0
  7  8  1  0  0  0  0
  7 11  1  0  0  0  0
  8  9  1  0  0  0  0
  9 10  1  0  0  0  0
 10 11  1  0  0  0  0
M  END
