
 OpenBabel03222517383D

 15 18  0  0  0  0  0  0  0  0999 V2000
   -0.6063    0.9068   -0.0951 C   0  0  0  0  0  0  0  0  0  0  0  0
    0.3856    2.5754   -0.5390 C   0  0  0  0  0  0  0  0  0  0  0  0
    1.0821    2.0301    0.6192 C   0  0  0  0  0  0  0  0  0  0  0  0
    1.5546    0.9849   -0.3279 C   0  0  0  0  0  0  0  0  0  0  0  0
    0.9347   -0.4550    0.5880 C   0  0  0  0  0  0  0  0  0  0  0  0
    2.6785   -0.1199    0.4042 C   0  0  0  0  0  0  0  0  0  0  0  0
    2.8167   -1.5610    0.2562 C   0  0  0  0  0  0  0  0  0  0  0  0
    1.6302   -2.1556   -0.5617 C   0  0  0  0  0  0  0  0  0  0  0  0
    0.5107   -1.8433    0.2954 C   0  0  0  0  0  0  0  0  0  0  0  0
   -0.8546   -1.3629   -0.6677 C   0  0  0  0  0  0  0  0  0  0  0  0
   -1.0719   -0.5223    0.7808 C   0  0  0  0  0  0  0  0  0  0  0  0
   -2.8533   -0.3042    0.0517 C   0  0  0  0  0  0  0  0  0  0  0  0
   -2.5100    0.8023    0.8232 C   0  0  0  0  0  0  0  0  0  0  0  0
   -1.9891    1.7809   -0.0519 C   0  0  0  0  0  0  0  0  0  0  0  0
   -0.5173    1.2944    1.5703 C   0  0  0  0  0  0  0  0  0  0  0  0
  1  2  1  0  0  0  0
  1 14  1  0  0  0  0
  2  3  1  0  0  0  0
  3  4  1  0  0  0  0
  3 15  1  0  0  0  0
  4  5  1  0  0  0  0
  5  6  1  0  0  0  0
  6  7  1  0  0  0  0
  6 12  1  0  0  0  0
  7  8  1  0  0  0  0
  7 11  1  0  0  0  0
  8  9  1  0  0  0  0
  9 10  1  0  0  0  0
 10 11  1  0  0  0  0
 11 12  1  0  0  0  0
 12 13  1  0  0  0  0
 13 14  1  0  0  0  0
 13 15  1  0  0  0  0
M  END
