
 OpenBabel03222517353D

  7  7  0  0  0  0  0  0  0  0999 V2000
    1.7461    0.0831   -0.0417 C   0  0  0  0  0  0  0  0  0  0  0  0
    1.0019   -1.1988   -0.4102 C   0  0  0  0  0  0  0  0  0  0  0  0
   -0.2380   -1.4907    0.4326 C   0  0  0  0  0  0  0  0  0  0  0  0
   -1.4937   -0.8086   -0.1131 C   0  0  0  0  0  0  0  0  0  0  0  0
   -1.5683    0.7044    0.0826 C   0  0  0  0  0  0  0  0  0  0  0  0
   -0.3488    1.4979   -0.3840 C   0  0  0  0  0  0  0  0  0  0  0  0
    0.8861    1.2328    0.4728 C   0  0  0  0  0  0  0  0  0  0  0  0
  1  2  1  0  0  0  0
  1  7  1  0  0  0  0
  2  3  1  0  0  0  0
  3  4  1  0  0  0  0
  4  5  1  0  0  0  0
  5  6  1  0  0  0  0
  6  7  1  0  0  0  0
M  END
