
 OpenBabel03222517363D

 10 13  0  0  0  0  0  0  0  0999 V2000
   -2.5711   -0.0589   -0.0986 C   0  0  0  0  0  0  0  0  0  0  0  0
   -1.5633   -1.4419    0.5505 C   0  0  0  0  0  0  0  0  0  0  0  0
    0.0510   -1.3601   -0.0885 C   0  0  0  0  0  0  0  0  0  0  0  0
   -0.4918   -0.7153   -1.2526 C   0  0  0  0  0  0  0  0  0  0  0  0
   -0.5988    0.4745   -0.0553 C   0  0  0  0  0  0  0  0  0  0  0  0
   -1.7071    1.2825   -0.3344 C   0  0  0  0  0  0  0  0  0  0  0  0
    0.1100    1.5823   -0.4471 C   0  0  0  0  0  0  0  0  0  0  0  0
    0.9199    0.0183    0.0808 C   0  0  0  0  0  0  0  0  0  0  0  0
    2.0112   -0.0303    1.1221 C   0  0  0  0  0  0  0  0  0  0  0  0
    2.3941    0.0262   -0.3297 C   0  0  0  0  0  0  0  0  0  0  0  0
  1  2  1  0  0  0  0
  1  6  1  0  0  0  0
  2  3  1  0  0  0  0
  3  4  1  0  0  0  0
  3  8  1  0  0  0  0
  4  5  1  0  0  0  0
  5  6  1  0  0  0  0
  5  7  1  0  0  0  0
  6  7  1  0  0  0  0
  7  8  1  0  0  0  0
  8  9  1  0  0  0  0
  8 10  1  0  0  0  0
  9 10  1  0  0  0  0
M  END
