
 OpenBabel03222517373D

 13 15  0  0  0  0  0  0  0  0999 V2000
    2.9754   -0.6614    0.3256 C   0  0  0  0  0  0  0  0  0  0  0  0
    3.1836    0.6981   -0.2939 C   0  0  0  0  0  0  0  0  0  0  0  0
    1.9479    1.5356    0.1066 C   0  0  0  0  0  0  0  0  0  0  0  0
    0.6575    0.7405   -0.5207 C   0  0  0  0  0  0  0  0  0  0  0  0
    0.8022   -0.9803    0.0134 C   0  0  0  0  0  0  0  0  0  0  0  0
    2.0477   -1.4245   -0.6258 C   0  0  0  0  0  0  0  0  0  0  0  0
   -0.4215   -1.8255    0.0266 C   0  0  0  0  0  0  0  0  0  0  0  0
   -1.3053   -0.6779    0.0787 C   0  0  0  0  0  0  0  0  0  0  0  0
   -2.7437   -1.0797    0.1973 C   0  0  0  0  0  0  0  0  0  0  0  0
   -3.4207    0.1219   -0.4189 C   0  0  0  0  0  0  0  0  0  0  0  0
   -2.6806    1.3355    0.1461 C   0  0  0  0  0  0  0  0  0  0  0  0
   -0.9076    1.5580   -0.3600 C   0  0  0  0  0  0  0  0  0  0  0  0
   -0.8245    0.8145    0.8693 C   0  0  0  0  0  0  0  0  0  0  0  0
  1  2  1  0  0  0  0
  1  6  1  0  0  0  0
  2  3  1  0  0  0  0
  3  4  1  0  0  0  0
  4  5  1  0  0  0  0
  4 13  1  0  0  0  0
  5  6  1  0  0  0  0
  5  7  1  0  0  0  0
  7  8  1  0  0  0  0
  8  9  1  0  0  0  0
  8 13  1  0  0  0  0
  9 10  1  0  0  0  0
 10 11  1  0  0  0  0
 11 12  1  0  0  0  0
 12 13  1  0  0  0  0
M  END
