
 OpenBabel03222517373D

 12 15  0  0  0  0  0  0  0  0999 V2000
    0.0126    0.8663    0.8138 C   0  0  0  0  0  0  0  0  0  0  0  0
    1.2892    0.8277    0.4085 C   0  0  0  0  0  0  0  0  0  0  0  0
    1.6903    1.6931   -0.5945 C   0  0  0  0  0  0  0  0  0  0  0  0
    0.9355    0.7879   -1.4896 C   0  0  0  0  0  0  0  0  0  0  0  0
   -0.8194    0.2790   -0.5985 C   0  0  0  0  0  0  0  0  0  0  0  0
   -2.2441    0.1363   -0.4909 C   0  0  0  0  0  0  0  0  0  0  0  0
   -1.6880   -1.4983    0.1321 C   0  0  0  0  0  0  0  0  0  0  0  0
   -0.0065   -2.1824    0.1354 C   0  0  0  0  0  0  0  0  0  0  0  0
   -0.0785   -1.0125    0.9545 C   0  0  0  0  0  0  0  0  0  0  0  0
    1.5004   -1.1187   -0.7471 C   0  0  0  0  0  0  0  0  0  0  0  0
    1.2176   -1.3101   -2.1101 C   0  0  0  0  0  0  0  0  0  0  0  0
    0.6309   -0.6142   -0.6126 C   0  0  0  0  0  0  0  0  0  0  0  0
  1  2  1  0  0  0  0
  1  6  1  0  0  0  0
  2  3  1  0  0  0  0
  2  9  1  0  0  0  0
  3  4  1  0  0  0  0
  4  5  1  0  0  0  0
  4 10  1  0  0  0  0
  5  6  1  0  0  0  0
  6  7  1  0  0  0  0
  7  8  1  0  0  0  0
  8  9  1  0  0  0  0
  8 10  1  0  0  0  0
 10 11  1  0  0  0  0
 10 12  1  0  0  0  0
 11 12  1  0  0  0  0
M  END
