
 OpenBabel03222517353D

  8 10  0  0  0  0  0  0  0  0999 V2000
   -0.9869   -0.6912    0.4159 C   0  0  0  0  0  0  0  0  0  0  0  0
   -1.4995    0.4415   -0.3358 C   0  0  0  0  0  0  0  0  0  0  0  0
   -1.1047    1.2885    0.9958 C   0  0  0  0  0  0  0  0  0  0  0  0
    0.2391    0.7596    0.6396 C   0  0  0  0  0  0  0  0  0  0  0  0
    1.4421   -0.0085    0.7205 C   0  0  0  0  0  0  0  0  0  0  0  0
    1.6097   -1.4570    0.5095 C   0  0  0  0  0  0  0  0  0  0  0  0
    1.1802   -0.7222   -0.7767 C   0  0  0  0  0  0  0  0  0  0  0  0
   -0.3012   -0.0217   -1.4826 C   0  0  0  0  0  0  0  0  0  0  0  0
  1  2  1  0  0  0  0
  1  7  1  0  0  0  0
  2  3  1  0  0  0  0
  3  4  1  0  0  0  0
  3  8  1  0  0  0  0
  4  5  1  0  0  0  0
  4  8  1  0  0  0  0
  5  6  1  0  0  0  0
  6  7  1  0  0  0  0
  7  8  1  0  0  0  0
M  END
