
 OpenBabel03222517353D

 10 12  0  0  0  0  0  0  0  0999 V2000
    2.1890   -0.8247    0.5229 C   0  0  0  0  0  0  0  0  0  0  0  0
    0.7434   -1.5172    0.3441 C   0  0  0  0  0  0  0  0  0  0  0  0
    0.3633   -1.9517    1.6988 C   0  0  0  0  0  0  0  0  0  0  0  0
    0.8650   -1.0152    2.7506 C   0  0  0  0  0  0  0  0  0  0  0  0
    1.8421    0.2960    2.8743 C   0  0  0  0  0  0  0  0  0  0  0  0
    3.3247    0.2304    2.4201 C   0  0  0  0  0  0  0  0  0  0  0  0
    3.3763   -1.1571    1.9093 C   0  0  0  0  0  0  0  0  0  0  0  0
    3.2289   -2.0393    3.4079 C   0  0  0  0  0  0  0  0  0  0  0  0
    2.2787   -3.1963    3.2631 C   0  0  0  0  0  0  0  0  0  0  0  0
    1.4976   -2.6734    2.2214 C   0  0  0  0  0  0  0  0  0  0  0  0
  1  2  1  0  0  0  0
  1  7  1  0  0  0  0
  2  3  1  0  0  0  0
  3  4  1  0  0  0  0
  3 10  1  0  0  0  0
  4  5  1  0  0  0  0
  5  6  1  0  0  0  0
  6  7  1  0  0  0  0
  6 10  1  0  0  0  0
  7  8  1  0  0  0  0
  8  9  1  0  0  0  0
  9 10  1  0  0  0  0
M  END
