
 OpenBabel03222517363D

 11 14  0  0  0  0  0  0  0  0999 V2000
    0.0534    2.1041    0.7448 C   0  0  0  0  0  0  0  0  0  0  0  0
   -0.8686    0.9153    1.2346 C   0  0  0  0  0  0  0  0  0  0  0  0
   -2.0392    0.6205    0.2880 C   0  0  0  0  0  0  0  0  0  0  0  0
   -0.9742    0.6210   -0.8564 C   0  0  0  0  0  0  0  0  0  0  0  0
    0.3926    1.5035   -0.5823 C   0  0  0  0  0  0  0  0  0  0  0  0
    1.6164    0.7314   -0.0391 C   0  0  0  0  0  0  0  0  0  0  0  0
    1.3628   -0.5817   -0.6683 C   0  0  0  0  0  0  0  0  0  0  0  0
    1.8381   -1.6598    0.3306 C   0  0  0  0  0  0  0  0  0  0  0  0
    0.5092   -2.2197    0.2696 C   0  0  0  0  0  0  0  0  0  0  0  0
   -0.4776   -0.8914    0.8071 C   0  0  0  0  0  0  0  0  0  0  0  0
   -0.3302   -0.6443   -0.6844 C   0  0  0  0  0  0  0  0  0  0  0  0
  1  2  1  0  0  0  0
  1  5  1  0  0  0  0
  2  3  1  0  0  0  0
  2 10  1  0  0  0  0
  3  4  1  0  0  0  0
  4  5  1  0  0  0  0
  4 11  1  0  0  0  0
  5  6  1  0  0  0  0
  6  7  1  0  0  0  0
  7  8  1  0  0  0  0
  7 11  1  0  0  0  0
  8  9  1  0  0  0  0
  9 10  1  0  0  0  0
 10 11  1  0  0  0  0
M  END
