
 OpenBabel03222517383D

 15 17  0  0  0  0  0  0  0  0999 V2000
   -2.8222    0.4166    0.3040 C   0  0  0  0  0  0  0  0  0  0  0  0
   -1.6623    1.2589    0.8210 C   0  0  0  0  0  0  0  0  0  0  0  0
   -0.4801    0.3709    1.1967 C   0  0  0  0  0  0  0  0  0  0  0  0
    0.0179   -0.4767   -0.0047 C   0  0  0  0  0  0  0  0  0  0  0  0
   -1.1684   -1.3637   -0.4648 C   0  0  0  0  0  0  0  0  0  0  0  0
   -2.4113   -0.5309   -0.8233 C   0  0  0  0  0  0  0  0  0  0  0  0
    0.4582    0.4094   -1.1980 C   0  0  0  0  0  0  0  0  0  0  0  0
    1.5724    1.3636   -0.8099 C   0  0  0  0  0  0  0  0  0  0  0  0
    2.7814    0.5570   -0.3698 C   0  0  0  0  0  0  0  0  0  0  0  0
    3.9275    1.4818    0.0530 C   0  0  0  0  0  0  0  0  0  0  0  0
    5.1419    0.6918    0.5451 C   0  0  0  0  0  0  0  0  0  0  0  0
    4.9874   -0.8032    0.2677 C   0  0  0  0  0  0  0  0  0  0  0  0
    3.7683   -1.3014    1.0596 C   0  0  0  0  0  0  0  0  0  0  0  0
    2.4905   -0.4730    0.7489 C   0  0  0  0  0  0  0  0  0  0  0  0
    1.2469   -1.3398    0.4267 C   0  0  0  0  0  0  0  0  0  0  0  0
  1  2  1  0  0  0  0
  1  6  1  0  0  0  0
  2  3  1  0  0  0  0
  3  4  1  0  0  0  0
  4  5  1  0  0  0  0
  4  7  1  0  0  0  0
  4 15  1  0  0  0  0
  5  6  1  0  0  0  0
  7  8  1  0  0  0  0
  8  9  1  0  0  0  0
  9 10  1  0  0  0  0
  9 14  1  0  0  0  0
 10 11  1  0  0  0  0
 11 12  1  0  0  0  0
 12 13  1  0  0  0  0
 13 14  1  0  0  0  0
 14 15  1  0  0  0  0
M  END
