
 OpenBabel03222517353D

  8 10  0  0  0  0  0  0  0  0999 V2000
    1.2351    0.1110   -0.3409 C   0  0  0  0  0  0  0  0  0  0  0  0
    0.8362    0.0961    1.0963 C   0  0  0  0  0  0  0  0  0  0  0  0
    0.4007   -1.0326    0.1465 C   0  0  0  0  0  0  0  0  0  0  0  0
    0.7435   -2.4794    0.2987 C   0  0  0  0  0  0  0  0  0  0  0  0
   -0.4246   -2.3056    1.1989 C   0  0  0  0  0  0  0  0  0  0  0  0
   -0.2119   -2.0647    2.6914 C   0  0  0  0  0  0  0  0  0  0  0  0
   -1.0750   -3.1947    2.2031 C   0  0  0  0  0  0  0  0  0  0  0  0
   -1.0466   -1.3711    0.2084 C   0  0  0  0  0  0  0  0  0  0  0  0
  1  2  1  0  0  0  0
  1  3  1  0  0  0  0
  2  3  1  0  0  0  0
  3  4  1  0  0  0  0
  3  8  1  0  0  0  0
  4  5  1  0  0  0  0
  5  6  1  0  0  0  0
  5  7  1  0  0  0  0
  5  8  1  0  0  0  0
  6  7  1  0  0  0  0
M  END
