
 OpenBabel03222517383D

 13 16  0  0  0  0  0  0  0  0999 V2000
    3.1999    0.0649   -0.1741 C   0  0  0  0  0  0  0  0  0  0  0  0
    2.4076    0.4707   -1.4025 C   0  0  0  0  0  0  0  0  0  0  0  0
    0.9469    0.2951   -1.0991 C   0  0  0  0  0  0  0  0  0  0  0  0
    0.8720   -0.3365    0.2796 C   0  0  0  0  0  0  0  0  0  0  0  0
    2.2413   -0.3386    0.9304 C   0  0  0  0  0  0  0  0  0  0  0  0
    0.4443   -1.8168    0.2720 C   0  0  0  0  0  0  0  0  0  0  0  0
   -0.9336   -1.3074    0.4354 C   0  0  0  0  0  0  0  0  0  0  0  0
   -1.8899   -0.9099   -0.8951 C   0  0  0  0  0  0  0  0  0  0  0  0
   -2.5716    0.5487   -1.2858 C   0  0  0  0  0  0  0  0  0  0  0  0
   -2.8171    1.3371    0.1097 C   0  0  0  0  0  0  0  0  0  0  0  0
   -1.8863    0.3867    0.7884 C   0  0  0  0  0  0  0  0  0  0  0  0
   -2.9009   -0.9518    0.1545 C   0  0  0  0  0  0  0  0  0  0  0  0
   -0.4888   -0.0327    1.0894 C   0  0  0  0  0  0  0  0  0  0  0  0
  1  2  1  0  0  0  0
  1  5  1  0  0  0  0
  2  3  1  0  0  0  0
  3  4  1  0  0  0  0
  4  5  1  0  0  0  0
  4  6  1  0  0  0  0
  4 13  1  0  0  0  0
  6  7  1  0  0  0  0
  7  8  1  0  0  0  0
  7 13  1  0  0  0  0
  8  9  1  0  0  0  0
  8 12  1  0  0  0  0
  9 10  1  0  0  0  0
 10 11  1  0  0  0  0
 11 12  1  0  0  0  0
 11 13  1  0  0  0  0
M  END
