
 OpenBabel03222517353D

  8 10  0  0  0  0  0  0  0  0999 V2000
   -2.3311   -0.0014   -0.3903 C   0  0  0  0  0  0  0  0  0  0  0  0
   -1.2359   -0.7704    0.2959 C   0  0  0  0  0  0  0  0  0  0  0  0
    0.0261   -1.2148   -0.4056 C   0  0  0  0  0  0  0  0  0  0  0  0
    0.9102    0.0012   -0.2363 C   0  0  0  0  0  0  0  0  0  0  0  0
    1.8840   -0.0445    0.9227 C   0  0  0  0  0  0  0  0  0  0  0  0
    2.3914    0.0483   -0.4908 C   0  0  0  0  0  0  0  0  0  0  0  0
    0.0215    1.2174   -0.3726 C   0  0  0  0  0  0  0  0  0  0  0  0
   -1.2386    0.7578    0.3115 C   0  0  0  0  0  0  0  0  0  0  0  0
  1  2  1  0  0  0  0
  1  8  1  0  0  0  0
  2  3  1  0  0  0  0
  2  8  1  0  0  0  0
  3  4  1  0  0  0  0
  4  5  1  0  0  0  0
  4  6  1  0  0  0  0
  4  7  1  0  0  0  0
  5  6  1  0  0  0  0
  7  8  1  0  0  0  0
M  END
