
 OpenBabel03222517363D

 14 16  0  0  0  0  0  0  0  0999 V2000
   -1.1232    2.1406    0.3091 C   0  0  0  0  0  0  0  0  0  0  0  0
    0.2919    2.3867   -0.0732 C   0  0  0  0  0  0  0  0  0  0  0  0
    1.3420    1.3112    0.3414 C   0  0  0  0  0  0  0  0  0  0  0  0
    2.3885    1.5005   -0.7329 C   0  0  0  0  0  0  0  0  0  0  0  0
    3.5571    0.8386   -0.0514 C   0  0  0  0  0  0  0  0  0  0  0  0
    3.0289   -0.5672   -0.0415 C   0  0  0  0  0  0  0  0  0  0  0  0
    1.5309   -0.3059    0.4306 C   0  0  0  0  0  0  0  0  0  0  0  0
    0.6664   -1.2390   -0.4164 C   0  0  0  0  0  0  0  0  0  0  0  0
   -0.7252   -1.3271    0.1508 C   0  0  0  0  0  0  0  0  0  0  0  0
   -1.5891   -2.4008   -0.4871 C   0  0  0  0  0  0  0  0  0  0  0  0
   -2.7454   -2.1365    0.4706 C   0  0  0  0  0  0  0  0  0  0  0  0
   -3.1983   -0.8510   -0.1133 C   0  0  0  0  0  0  0  0  0  0  0  0
   -1.8425   -0.1469    0.1825 C   0  0  0  0  0  0  0  0  0  0  0  0
   -1.5774    1.0601   -0.6611 C   0  0  0  0  0  0  0  0  0  0  0  0
  1  2  1  0  0  0  0
  1 14  1  0  0  0  0
  2  3  1  0  0  0  0
  3  4  1  0  0  0  0
  3  7  1  0  0  0  0
  4  5  1  0  0  0  0
  5  6  1  0  0  0  0
  6  7  1  0  0  0  0
  7  8  1  0  0  0  0
  8  9  1  0  0  0  0
  9 10  1  0  0  0  0
  9 13  1  0  0  0  0
 10 11  1  0  0  0  0
 11 12  1  0  0  0  0
 12 13  1  0  0  0  0
 13 14  1  0  0  0  0
M  END
