
 OpenBabel03222517353D

 10 12  0  0  0  0  0  0  0  0999 V2000
    0.1873    1.1102    1.1245 C   0  0  0  0  0  0  0  0  0  0  0  0
    1.2313    1.9446   -0.1945 C   0  0  0  0  0  0  0  0  0  0  0  0
    1.5138    0.6428   -0.0321 C   0  0  0  0  0  0  0  0  0  0  0  0
    1.4659   -0.6859   -0.6810 C   0  0  0  0  0  0  0  0  0  0  0  0
    0.9316   -1.9173   -0.1692 C   0  0  0  0  0  0  0  0  0  0  0  0
   -0.4388   -1.6570   -0.5885 C   0  0  0  0  0  0  0  0  0  0  0  0
   -0.9288   -0.4944    0.5940 C   0  0  0  0  0  0  0  0  0  0  0  0
   -2.1957   -0.0454   -0.1881 C   0  0  0  0  0  0  0  0  0  0  0  0
   -1.4794    1.2091   -0.3128 C   0  0  0  0  0  0  0  0  0  0  0  0
    0.1831    0.6031   -1.0142 C   0  0  0  0  0  0  0  0  0  0  0  0
  1  2  1  0  0  0  0
  1 10  1  0  0  0  0
  2  3  1  0  0  0  0
  3  4  1  0  0  0  0
  3  5  1  0  0  0  0
  4  5  1  0  0  0  0
  5  6  1  0  0  0  0
  6  7  1  0  0  0  0
  7  8  1  0  0  0  0
  7  9  1  0  0  0  0
  8  9  1  0  0  0  0
  9 10  1  0  0  0  0
M  END
