
 OpenBabel03222517353D

  9 11  0  0  0  0  0  0  0  0999 V2000
    0.9092   -0.4339   -1.3975 C   0  0  0  0  0  0  0  0  0  0  0  0
    2.0564   -0.2067   -0.4257 C   0  0  0  0  0  0  0  0  0  0  0  0
    1.1129   -0.1967    0.6487 C   0  0  0  0  0  0  0  0  0  0  0  0
    0.1011    0.9291    0.9314 C   0  0  0  0  0  0  0  0  0  0  0  0
   -0.5804    1.7606   -0.2094 C   0  0  0  0  0  0  0  0  0  0  0  0
   -0.7660    0.4989   -1.0692 C   0  0  0  0  0  0  0  0  0  0  0  0
   -1.5368   -0.6750   -0.9924 C   0  0  0  0  0  0  0  0  0  0  0  0
   -0.5189   -1.2357    0.1223 C   0  0  0  0  0  0  0  0  0  0  0  0
   -0.5459   -0.8224    1.5619 C   0  0  0  0  0  0  0  0  0  0  0  0
  1  2  1  0  0  0  0
  1  9  1  0  0  0  0
  2  3  1  0  0  0  0
  3  4  1  0  0  0  0
  3  5  1  0  0  0  0
  4  5  1  0  0  0  0
  5  6  1  0  0  0  0
  6  7  1  0  0  0  0
  6  9  1  0  0  0  0
  7  8  1  0  0  0  0
  8  9  1  0  0  0  0
M  END
