
 OpenBabel03222517363D

 12 14  0  0  0  0  0  0  0  0999 V2000
    2.4653    1.1882    0.8944 C   0  0  0  0  0  0  0  0  0  0  0  0
    1.1691    0.6786    1.8068 C   0  0  0  0  0  0  0  0  0  0  0  0
    0.6775    2.0577    2.0120 C   0  0  0  0  0  0  0  0  0  0  0  0
    0.1442    2.3533    0.5102 C   0  0  0  0  0  0  0  0  0  0  0  0
    1.1299    3.2307   -0.2500 C   0  0  0  0  0  0  0  0  0  0  0  0
    2.5190    2.8981    0.2941 C   0  0  0  0  0  0  0  0  0  0  0  0
    1.2108    2.5907   -1.7908 C   0  0  0  0  0  0  0  0  0  0  0  0
    2.2682    1.6416   -2.9617 C   0  0  0  0  0  0  0  0  0  0  0  0
    1.9764    0.4714   -2.1286 C   0  0  0  0  0  0  0  0  0  0  0  0
    0.1383    0.6532   -2.4335 C   0  0  0  0  0  0  0  0  0  0  0  0
   -0.7777    0.3493   -1.2415 C   0  0  0  0  0  0  0  0  0  0  0  0
    0.2951    1.2791   -0.6627 C   0  0  0  0  0  0  0  0  0  0  0  0
  1  2  1  0  0  0  0
  1 12  1  0  0  0  0
  2  3  1  0  0  0  0
  3  4  1  0  0  0  0
  4  5  1  0  0  0  0
  4 10  1  0  0  0  0
  5  6  1  0  0  0  0
  6  7  1  0  0  0  0
  6  9  1  0  0  0  0
  6 10  1  0  0  0  0
  7  8  1  0  0  0  0
  8  9  1  0  0  0  0
 10 11  1  0  0  0  0
 11 12  1  0  0  0  0
M  END
