
 OpenBabel03222517373D

 11 13  0  0  0  0  0  0  0  0999 V2000
    1.1689   -0.4866    0.6246 C   0  0  0  0  0  0  0  0  0  0  0  0
    0.6036    0.0311    1.9370 C   0  0  0  0  0  0  0  0  0  0  0  0
    0.7448    1.5215    1.6814 C   0  0  0  0  0  0  0  0  0  0  0  0
    0.2007    1.6864    0.2106 C   0  0  0  0  0  0  0  0  0  0  0  0
    0.0843    0.1127   -0.2532 C   0  0  0  0  0  0  0  0  0  0  0  0
    1.2594    3.1405    0.0527 C   0  0  0  0  0  0  0  0  0  0  0  0
    1.5687    2.5221   -1.2561 C   0  0  0  0  0  0  0  0  0  0  0  0
    2.0690    3.1260   -2.5389 C   0  0  0  0  0  0  0  0  0  0  0  0
    2.7284    1.7139   -2.7519 C   0  0  0  0  0  0  0  0  0  0  0  0
    2.8662    1.6943   -1.2366 C   0  0  0  0  0  0  0  0  0  0  0  0
    0.0820    2.1777   -1.2873 C   0  0  0  0  0  0  0  0  0  0  0  0
  1  2  1  0  0  0  0
  1  5  1  0  0  0  0
  2  3  1  0  0  0  0
  3  4  1  0  0  0  0
  4  5  1  0  0  0  0
  4  6  1  0  0  0  0
  4 11  1  0  0  0  0
  6  7  1  0  0  0  0
  7  8  1  0  0  0  0
  7 10  1  0  0  0  0
  7 11  1  0  0  0  0
  8  9  1  0  0  0  0
  9 10  1  0  0  0  0
M  END
