
 OpenBabel03222517373D

 11 15  0  0  0  0  0  0  0  0999 V2000
    0.6484    1.7144    1.8186 C   0  0  0  0  0  0  0  0  0  0  0  0
   -0.3602    0.9562    1.1083 C   0  0  0  0  0  0  0  0  0  0  0  0
   -1.3889   -0.0703    0.6364 C   0  0  0  0  0  0  0  0  0  0  0  0
   -1.4789   -1.5225    0.1958 C   0  0  0  0  0  0  0  0  0  0  0  0
   -0.0528   -1.8343   -0.1647 C   0  0  0  0  0  0  0  0  0  0  0  0
    0.9673   -1.0204    0.8551 C   0  0  0  0  0  0  0  0  0  0  0  0
    1.2734    0.4570    1.4379 C   0  0  0  0  0  0  0  0  0  0  0  0
    1.0682   -0.8394   -0.5639 C   0  0  0  0  0  0  0  0  0  0  0  0
    0.4754    0.4709   -1.1317 C   0  0  0  0  0  0  0  0  0  0  0  0
   -0.1853    0.2958   -2.3297 C   0  0  0  0  0  0  0  0  0  0  0  0
   -1.0431    0.4608   -0.8985 C   0  0  0  0  0  0  0  0  0  0  0  0
  1  2  1  0  0  0  0
  1  9  1  0  0  0  0
  2  3  1  0  0  0  0
  2 11  1  0  0  0  0
  3  4  1  0  0  0  0
  3 10  1  0  0  0  0
  4  5  1  0  0  0  0
  5  6  1  0  0  0  0
  5 11  1  0  0  0  0
  6  7  1  0  0  0  0
  6 10  1  0  0  0  0
  7  8  1  0  0  0  0
  8  9  1  0  0  0  0
  8 11  1  0  0  0  0
  9 10  1  0  0  0  0
M  END
