
 OpenBabel03222517363D

 11 13  0  0  0  0  0  0  0  0999 V2000
   -2.3223    0.6996    0.2971 C   0  0  0  0  0  0  0  0  0  0  0  0
   -2.3119   -0.7244   -0.2764 C   0  0  0  0  0  0  0  0  0  0  0  0
   -1.0689   -1.4894    0.1987 C   0  0  0  0  0  0  0  0  0  0  0  0
    0.1355   -0.6905   -0.2911 C   0  0  0  0  0  0  0  0  0  0  0  0
    1.5304   -1.2046    0.0289 C   0  0  0  0  0  0  0  0  0  0  0  0
    2.3701    0.0637   -0.0097 C   0  0  0  0  0  0  0  0  0  0  0  0
    3.7450   -0.0450   -0.6142 C   0  0  0  0  0  0  0  0  0  0  0  0
    3.5923    0.1788    0.8795 C   0  0  0  0  0  0  0  0  0  0  0  0
    1.5108    1.2985   -0.1141 C   0  0  0  0  0  0  0  0  0  0  0  0
    0.1289    0.7547    0.2406 C   0  0  0  0  0  0  0  0  0  0  0  0
   -1.1166    1.5087   -0.2104 C   0  0  0  0  0  0  0  0  0  0  0  0
  1  2  1  0  0  0  0
  1 11  1  0  0  0  0
  2  3  1  0  0  0  0
  3  4  1  0  0  0  0
  4  5  1  0  0  0  0
  4 10  1  0  0  0  0
  5  6  1  0  0  0  0
  6  7  1  0  0  0  0
  6  8  1  0  0  0  0
  6  9  1  0  0  0  0
  7  8  1  0  0  0  0
  9 10  1  0  0  0  0
 10 11  1  0  0  0  0
M  END
