
 OpenBabel03222517373D

 11 14  0  0  0  0  0  0  0  0999 V2000
   -2.5431    0.6629   -0.3920 C   0  0  0  0  0  0  0  0  0  0  0  0
   -2.4861   -0.8437   -0.6120 C   0  0  0  0  0  0  0  0  0  0  0  0
   -1.0641   -1.3003   -0.8738 C   0  0  0  0  0  0  0  0  0  0  0  0
   -0.1426   -0.9302    0.2817 C   0  0  0  0  0  0  0  0  0  0  0  0
   -0.2953    0.4914    0.8588 C   0  0  0  0  0  0  0  0  0  0  0  0
   -1.6635    1.1311    0.7620 C   0  0  0  0  0  0  0  0  0  0  0  0
    0.8979    1.2839    0.3945 C   0  0  0  0  0  0  0  0  0  0  0  0
    1.3815    1.5314   -0.9511 C   0  0  0  0  0  0  0  0  0  0  0  0
    1.9161    0.3260   -0.2782 C   0  0  0  0  0  0  0  0  0  0  0  0
    2.3694   -0.5808    0.8498 C   0  0  0  0  0  0  0  0  0  0  0  0
    1.2945   -1.0165   -0.1394 C   0  0  0  0  0  0  0  0  0  0  0  0
  1  2  1  0  0  0  0
  1  6  1  0  0  0  0
  2  3  1  0  0  0  0
  3  4  1  0  0  0  0
  4  5  1  0  0  0  0
  4 10  1  0  0  0  0
  5  6  1  0  0  0  0
  5  7  1  0  0  0  0
  7  8  1  0  0  0  0
  8  9  1  0  0  0  0
  8 11  1  0  0  0  0
  9 10  1  0  0  0  0
  9 11  1  0  0  0  0
 10 11  1  0  0  0  0
M  END
