
 OpenBabel03222517363D

 12 14  0  0  0  0  0  0  0  0999 V2000
    0.8318    0.1277    0.0028 C   0  0  0  0  0  0  0  0  0  0  0  0
    0.2298    0.4949   -1.3483 C   0  0  0  0  0  0  0  0  0  0  0  0
    0.7960   -0.5097   -2.3128 C   0  0  0  0  0  0  0  0  0  0  0  0
   -0.3319   -1.3538   -2.8041 C   0  0  0  0  0  0  0  0  0  0  0  0
   -0.0985   -2.8218   -2.6373 C   0  0  0  0  0  0  0  0  0  0  0  0
    1.3112   -3.3270   -2.3342 C   0  0  0  0  0  0  0  0  0  0  0  0
    2.2707   -3.0147   -3.4744 C   0  0  0  0  0  0  0  0  0  0  0  0
    3.0319   -1.4836   -3.4245 C   0  0  0  0  0  0  0  0  0  0  0  0
    3.0038   -0.1962   -2.1161 C   0  0  0  0  0  0  0  0  0  0  0  0
    2.2722    0.6416   -0.5494 C   0  0  0  0  0  0  0  0  0  0  0  0
    2.0377   -1.2423   -1.6353 C   0  0  0  0  0  0  0  0  0  0  0  0
    2.0240   -2.6491   -1.2421 C   0  0  0  0  0  0  0  0  0  0  0  0
  1  2  1  0  0  0  0
  1 10  1  0  0  0  0
  2  3  1  0  0  0  0
  3  4  1  0  0  0  0
  3 11  1  0  0  0  0
  4  5  1  0  0  0  0
  5  6  1  0  0  0  0
  6  7  1  0  0  0  0
  6 12  1  0  0  0  0
  7  8  1  0  0  0  0
  8  9  1  0  0  0  0
  9 10  1  0  0  0  0
  9 11  1  0  0  0  0
 11 12  1  0  0  0  0
M  END
