
 OpenBabel03222517353D

  9 12  0  0  0  0  0  0  0  0999 V2000
    0.4229   -0.6307   -0.4696 C   0  0  0  0  0  0  0  0  0  0  0  0
    0.3322    0.6431   -1.3093 C   0  0  0  0  0  0  0  0  0  0  0  0
    1.2081   -0.0268   -2.3843 C   0  0  0  0  0  0  0  0  0  0  0  0
    0.7729   -1.3958   -1.8003 C   0  0  0  0  0  0  0  0  0  0  0  0
    2.1631   -1.9213   -2.0636 C   0  0  0  0  0  0  0  0  0  0  0  0
    2.9652   -2.0443   -0.8013 C   0  0  0  0  0  0  0  0  0  0  0  0
    3.4061   -0.5574   -1.0106 C   0  0  0  0  0  0  0  0  0  0  0  0
    2.6389   -0.5360   -2.3099 C   0  0  0  0  0  0  0  0  0  0  0  0
    2.9668   -1.6098   -3.3363 C   0  0  0  0  0  0  0  0  0  0  0  0
  1  2  1  0  0  0  0
  1  4  1  0  0  0  0
  2  3  1  0  0  0  0
  3  4  1  0  0  0  0
  3  8  1  0  0  0  0
  4  5  1  0  0  0  0
  5  6  1  0  0  0  0
  5  8  1  0  0  0  0
  5  9  1  0  0  0  0
  6  7  1  0  0  0  0
  7  8  1  0  0  0  0
  8  9  1  0  0  0  0
M  END
