
 OpenBabel03222517383D

 13 16  0  0  0  0  0  0  0  0999 V2000
   -0.6842   -1.1600   -0.3663 C   0  0  0  0  0  0  0  0  0  0  0  0
   -1.1650   -2.4317   -0.8259 C   0  0  0  0  0  0  0  0  0  0  0  0
   -0.2009   -2.3715    0.3790 C   0  0  0  0  0  0  0  0  0  0  0  0
    0.5009   -0.5674    0.7236 C   0  0  0  0  0  0  0  0  0  0  0  0
   -0.6950    0.6024   -0.0999 C   0  0  0  0  0  0  0  0  0  0  0  0
   -1.9098    0.6546    0.3819 C   0  0  0  0  0  0  0  0  0  0  0  0
   -1.2229    1.8361    0.1899 C   0  0  0  0  0  0  0  0  0  0  0  0
   -0.3778    0.5767    1.7154 C   0  0  0  0  0  0  0  0  0  0  0  0
    1.3283   -0.7221    1.4887 C   0  0  0  0  0  0  0  0  0  0  0  0
    1.5629   -0.5893   -0.0068 C   0  0  0  0  0  0  0  0  0  0  0  0
    2.7488    0.2446   -0.5724 C   0  0  0  0  0  0  0  0  0  0  0  0
    1.0543   -0.0160   -0.9158 C   0  0  0  0  0  0  0  0  0  0  0  0
    0.8658    1.4053    0.3830 C   0  0  0  0  0  0  0  0  0  0  0  0
  1  2  1  0  0  0  0
  1  6  1  0  0  0  0
  2  3  1  0  0  0  0
  3  4  1  0  0  0  0
  4  5  1  0  0  0  0
  4  9  1  0  0  0  0
  5  6  1  0  0  0  0
  5  7  1  0  0  0  0
  7  8  1  0  0  0  0
  7 13  1  0  0  0  0
  8  9  1  0  0  0  0
  9 10  1  0  0  0  0
 10 11  1  0  0  0  0
 10 13  1  0  0  0  0
 11 12  1  0  0  0  0
 12 13  1  0  0  0  0
M  END
