
 OpenBabel03222517373D

 11 14  0  0  0  0  0  0  0  0999 V2000
   -1.6045    0.5306    0.5897 C   0  0  0  0  0  0  0  0  0  0  0  0
   -1.6325    1.7039    1.3686 C   0  0  0  0  0  0  0  0  0  0  0  0
   -0.7773    1.0559    0.2809 C   0  0  0  0  0  0  0  0  0  0  0  0
    0.3760    1.6518   -0.4074 C   0  0  0  0  0  0  0  0  0  0  0  0
    0.5638    0.3061   -1.2019 C   0  0  0  0  0  0  0  0  0  0  0  0
    1.7800    0.0904   -0.6262 C   0  0  0  0  0  0  0  0  0  0  0  0
    0.2549   -0.3703    0.8369 C   0  0  0  0  0  0  0  0  0  0  0  0
   -0.1731   -1.8064    0.7033 C   0  0  0  0  0  0  0  0  0  0  0  0
   -0.2860   -1.3045   -0.6346 C   0  0  0  0  0  0  0  0  0  0  0  0
   -1.5020   -0.6944   -0.7104 C   0  0  0  0  0  0  0  0  0  0  0  0
    0.9820   -1.0056   -0.9780 C   0  0  0  0  0  0  0  0  0  0  0  0
  1  2  1  0  0  0  0
  1 10  1  0  0  0  0
  2  3  1  0  0  0  0
  3  4  1  0  0  0  0
  3  8  1  0  0  0  0
  4  5  1  0  0  0  0
  5  6  1  0  0  0  0
  5 11  1  0  0  0  0
  6  7  1  0  0  0  0
  6 11  1  0  0  0  0
  7  8  1  0  0  0  0
  8  9  1  0  0  0  0
  9 10  1  0  0  0  0
  9 11  1  0  0  0  0
M  END
