
 OpenBabel03222517363D

 14 15  0  0  0  0  0  0  0  0999 V2000
   -1.2740    2.5967    0.4161 C   0  0  0  0  0  0  0  0  0  0  0  0
    0.0060    3.1782   -0.1580 C   0  0  0  0  0  0  0  0  0  0  0  0
    1.2107    2.4756    0.4290 C   0  0  0  0  0  0  0  0  0  0  0  0
    1.7269    1.5174   -0.6092 C   0  0  0  0  0  0  0  0  0  0  0  0
    2.3940    0.4068    0.1252 C   0  0  0  0  0  0  0  0  0  0  0  0
    1.5962   -0.8645   -0.1644 C   0  0  0  0  0  0  0  0  0  0  0  0
    2.0509   -1.9229    0.8063 C   0  0  0  0  0  0  0  0  0  0  0  0
    1.5822   -3.0589   -0.0918 C   0  0  0  0  0  0  0  0  0  0  0  0
    0.1577   -2.9691    0.1969 C   0  0  0  0  0  0  0  0  0  0  0  0
   -0.0537   -1.4270   -0.3560 C   0  0  0  0  0  0  0  0  0  0  0  0
   -1.5700   -1.2299    0.1300 C   0  0  0  0  0  0  0  0  0  0  0  0
   -2.9379   -0.5320   -0.1986 C   0  0  0  0  0  0  0  0  0  0  0  0
   -3.0430    0.9145    0.1551 C   0  0  0  0  0  0  0  0  0  0  0  0
   -1.8778    1.5896   -0.5279 C   0  0  0  0  0  0  0  0  0  0  0  0
  1  2  1  0  0  0  0
  1 14  1  0  0  0  0
  2  3  1  0  0  0  0
  3  4  1  0  0  0  0
  4  5  1  0  0  0  0
  5  6  1  0  0  0  0
  6  7  1  0  0  0  0
  6 11  1  0  0  0  0
  7  8  1  0  0  0  0
  8  9  1  0  0  0  0
  9 10  1  0  0  0  0
 10 11  1  0  0  0  0
 11 12  1  0  0  0  0
 12 13  1  0  0  0  0
 13 14  1  0  0  0  0
M  END
