
 OpenBabel03222517373D

 14 17  0  0  0  0  0  0  0  0999 V2000
   -1.5846    3.0728    0.1540 C   0  0  0  0  0  0  0  0  0  0  0  0
   -0.1656    3.3332   -0.1854 C   0  0  0  0  0  0  0  0  0  0  0  0
    0.3451    1.9982    0.3430 C   0  0  0  0  0  0  0  0  0  0  0  0
    1.3849    1.6031   -0.6947 C   0  0  0  0  0  0  0  0  0  0  0  0
    2.1039    0.5735    0.0410 C   0  0  0  0  0  0  0  0  0  0  0  0
    1.1824   -0.6696    0.1422 C   0  0  0  0  0  0  0  0  0  0  0  0
    2.3668   -1.4009    0.7344 C   0  0  0  0  0  0  0  0  0  0  0  0
    1.2983   -2.2747    0.3421 C   0  0  0  0  0  0  0  0  0  0  0  0
    0.5919   -2.9002   -0.7538 C   0  0  0  0  0  0  0  0  0  0  0  0
   -0.7857   -3.1145   -0.0998 C   0  0  0  0  0  0  0  0  0  0  0  0
   -1.4016   -1.7305    0.2420 C   0  0  0  0  0  0  0  0  0  0  0  0
   -0.4431   -0.4732    0.0517 C   0  0  0  0  0  0  0  0  0  0  0  0
   -0.9022    0.9443    0.4041 C   0  0  0  0  0  0  0  0  0  0  0  0
   -1.7128    1.7384   -0.6197 C   0  0  0  0  0  0  0  0  0  0  0  0
  1  2  1  0  0  0  0
  1 14  1  0  0  0  0
  2  3  1  0  0  0  0
  3  4  1  0  0  0  0
  3 13  1  0  0  0  0
  4  5  1  0  0  0  0
  5  6  1  0  0  0  0
  6  7  1  0  0  0  0
  6 12  1  0  0  0  0
  7  8  1  0  0  0  0
  8  9  1  0  0  0  0
  9 10  1  0  0  0  0
  9 11  1  0  0  0  0
 10 11  1  0  0  0  0
 11 12  1  0  0  0  0
 12 13  1  0  0  0  0
 13 14  1  0  0  0  0
M  END
