
 OpenBabel03222517353D

  9 11  0  0  0  0  0  0  0  0999 V2000
   -0.4353   -1.4118    0.9985 C   0  0  0  0  0  0  0  0  0  0  0  0
    0.3610   -1.6922   -0.3182 C   0  0  0  0  0  0  0  0  0  0  0  0
    0.9565   -0.3303   -0.0777 C   0  0  0  0  0  0  0  0  0  0  0  0
    0.8789   -0.6069    1.3685 C   0  0  0  0  0  0  0  0  0  0  0  0
    1.8890    0.5033   -0.8024 C   0  0  0  0  0  0  0  0  0  0  0  0
    0.4483    0.8877   -0.7249 C   0  0  0  0  0  0  0  0  0  0  0  0
   -0.4748    1.8630    0.1024 C   0  0  0  0  0  0  0  0  0  0  0  0
   -1.5287    0.9805   -0.6534 C   0  0  0  0  0  0  0  0  0  0  0  0
   -0.5234    0.9226   -1.8354 C   0  0  0  0  0  0  0  0  0  0  0  0
  1  2  1  0  0  0  0
  1  8  1  0  0  0  0
  2  3  1  0  0  0  0
  3  4  1  0  0  0  0
  3  5  1  0  0  0  0
  3  6  1  0  0  0  0
  4  5  1  0  0  0  0
  6  7  1  0  0  0  0
  6  9  1  0  0  0  0
  7  8  1  0  0  0  0
  8  9  1  0  0  0  0
M  END
