
 OpenBabel03222517363D

 11 13  0  0  0  0  0  0  0  0999 V2000
   -1.6017   -0.0548   -0.3240 C   0  0  0  0  0  0  0  0  0  0  0  0
   -2.4603   -1.2272   -0.5258 C   0  0  0  0  0  0  0  0  0  0  0  0
   -1.3034   -1.9538    0.0413 C   0  0  0  0  0  0  0  0  0  0  0  0
   -0.0920   -1.0480   -0.6734 C   0  0  0  0  0  0  0  0  0  0  0  0
    0.9818   -1.3872    0.2119 C   0  0  0  0  0  0  0  0  0  0  0  0
    0.4254   -0.6108   -1.0206 C   0  0  0  0  0  0  0  0  0  0  0  0
    2.0354    0.0845    0.0945 C   0  0  0  0  0  0  0  0  0  0  0  0
    2.0530    1.5210    0.5335 C   0  0  0  0  0  0  0  0  0  0  0  0
    1.2737    0.5409    1.8551 C   0  0  0  0  0  0  0  0  0  0  0  0
   -0.1010    0.7980    1.4555 C   0  0  0  0  0  0  0  0  0  0  0  0
    0.4246    0.8765    0.0838 C   0  0  0  0  0  0  0  0  0  0  0  0
  1  2  1  0  0  0  0
  1 11  1  0  0  0  0
  2  3  1  0  0  0  0
  3  4  1  0  0  0  0
  4  5  1  0  0  0  0
  4 10  1  0  0  0  0
  5  6  1  0  0  0  0
  5  9  1  0  0  0  0
  6  7  1  0  0  0  0
  7  8  1  0  0  0  0
  8  9  1  0  0  0  0
  8 10  1  0  0  0  0
 10 11  1  0  0  0  0
M  END
