
 OpenBabel03222517373D

 11 16  0  0  0  0  0  0  0  0999 V2000
    1.0061   -0.2052    0.2657 C   0  0  0  0  0  0  0  0  0  0  0  0
    0.3622    0.4748   -0.8180 C   0  0  0  0  0  0  0  0  0  0  0  0
    0.5356    1.2432    0.5987 C   0  0  0  0  0  0  0  0  0  0  0  0
   -0.3559    2.4834    0.2976 C   0  0  0  0  0  0  0  0  0  0  0  0
    0.5863    3.2188   -0.6643 C   0  0  0  0  0  0  0  0  0  0  0  0
    1.4076    4.2944   -0.0840 C   0  0  0  0  0  0  0  0  0  0  0  0
    0.8921    4.4478    1.3430 C   0  0  0  0  0  0  0  0  0  0  0  0
   -0.1657    3.3925    1.4993 C   0  0  0  0  0  0  0  0  0  0  0  0
    1.1979    3.1261    2.0144 C   0  0  0  0  0  0  0  0  0  0  0  0
    1.7790    2.0691    1.0838 C   0  0  0  0  0  0  0  0  0  0  0  0
    1.9976    2.9278   -0.1343 C   0  0  0  0  0  0  0  0  0  0  0  0
  1  2  1  0  0  0  0
  1  3  1  0  0  0  0
  2  3  1  0  0  0  0
  3  4  1  0  0  0  0
  3 10  1  0  0  0  0
  4  5  1  0  0  0  0
  4  8  1  0  0  0  0
  5  6  1  0  0  0  0
  5 11  1  0  0  0  0
  6  7  1  0  0  0  0
  6 11  1  0  0  0  0
  7  8  1  0  0  0  0
  7  9  1  0  0  0  0
  8  9  1  0  0  0  0
  9 10  1  0  0  0  0
 10 11  1  0  0  0  0
M  END
