
 OpenBabel03222517363D

 12 15  0  0  0  0  0  0  0  0999 V2000
   -2.4687    0.0307    0.9063 C   0  0  0  0  0  0  0  0  0  0  0  0
   -2.2480   -1.2766   -0.1912 C   0  0  0  0  0  0  0  0  0  0  0  0
   -0.8980   -1.4089    0.2575 C   0  0  0  0  0  0  0  0  0  0  0  0
    0.2689   -0.9602   -0.3547 C   0  0  0  0  0  0  0  0  0  0  0  0
    1.4061   -1.4378    0.6567 C   0  0  0  0  0  0  0  0  0  0  0  0
    1.9235   -0.0899    0.5718 C   0  0  0  0  0  0  0  0  0  0  0  0
    2.3846    0.8546   -0.4554 C   0  0  0  0  0  0  0  0  0  0  0  0
    1.1240    0.8115   -1.5167 C   0  0  0  0  0  0  0  0  0  0  0  0
   -0.3757   -0.0164   -0.5367 C   0  0  0  0  0  0  0  0  0  0  0  0
    0.5610    0.5886    0.9304 C   0  0  0  0  0  0  0  0  0  0  0  0
   -0.3896    1.0505   -0.0443 C   0  0  0  0  0  0  0  0  0  0  0  0
   -1.5726    1.5001    0.7514 C   0  0  0  0  0  0  0  0  0  0  0  0
  1  2  1  0  0  0  0
  1  9  1  0  0  0  0
  2  3  1  0  0  0  0
  3  4  1  0  0  0  0
  3 12  1  0  0  0  0
  4  5  1  0  0  0  0
  4  7  1  0  0  0  0
  5  6  1  0  0  0  0
  6  7  1  0  0  0  0
  7  8  1  0  0  0  0
  8  9  1  0  0  0  0
  8 12  1  0  0  0  0
  9 10  1  0  0  0  0
 10 11  1  0  0  0  0
 11 12  1  0  0  0  0
M  END
