
 OpenBabel03222517373D

 12 15  0  0  0  0  0  0  0  0999 V2000
    1.4976   -0.7934   -0.4317 C   0  0  0  0  0  0  0  0  0  0  0  0
    2.6169   -0.0109   -0.0934 C   0  0  0  0  0  0  0  0  0  0  0  0
    1.6005    0.6577   -0.9621 C   0  0  0  0  0  0  0  0  0  0  0  0
    1.0209    1.9040   -0.4069 C   0  0  0  0  0  0  0  0  0  0  0  0
    0.2528    0.8184   -1.0182 C   0  0  0  0  0  0  0  0  0  0  0  0
   -1.3198    0.6380   -1.2072 C   0  0  0  0  0  0  0  0  0  0  0  0
   -2.1948   -0.7765   -0.7922 C   0  0  0  0  0  0  0  0  0  0  0  0
   -3.0322   -0.0611    0.2463 C   0  0  0  0  0  0  0  0  0  0  0  0
   -2.0236   -0.1164    1.3452 C   0  0  0  0  0  0  0  0  0  0  0  0
   -0.7124   -0.6693    0.6447 C   0  0  0  0  0  0  0  0  0  0  0  0
   -1.0656   -1.8237   -0.2211 C   0  0  0  0  0  0  0  0  0  0  0  0
   -0.2578   -0.2257   -0.9761 C   0  0  0  0  0  0  0  0  0  0  0  0
  1  2  1  0  0  0  0
  1 11  1  0  0  0  0
  2  3  1  0  0  0  0
  3  4  1  0  0  0  0
  3  5  1  0  0  0  0
  4  5  1  0  0  0  0
  5  6  1  0  0  0  0
  5 10  1  0  0  0  0
  6  7  1  0  0  0  0
  7  8  1  0  0  0  0
  7 12  1  0  0  0  0
  8  9  1  0  0  0  0
  9 10  1  0  0  0  0
 10 11  1  0  0  0  0
 10 12  1  0  0  0  0
M  END
