
 OpenBabel03222517363D

 12 14  0  0  0  0  0  0  0  0999 V2000
   -1.3962    0.0643    0.5151 C   0  0  0  0  0  0  0  0  0  0  0  0
   -2.1913   -0.9667   -0.2875 C   0  0  0  0  0  0  0  0  0  0  0  0
   -1.1996   -1.9208    0.1414 C   0  0  0  0  0  0  0  0  0  0  0  0
   -0.1721   -0.9652   -0.6392 C   0  0  0  0  0  0  0  0  0  0  0  0
    1.3668   -1.4996    0.0639 C   0  0  0  0  0  0  0  0  0  0  0  0
    0.5235   -0.5127    0.1228 C   0  0  0  0  0  0  0  0  0  0  0  0
    1.8959   -0.4003   -1.3881 C   0  0  0  0  0  0  0  0  0  0  0  0
    3.2550    0.0258   -1.6507 C   0  0  0  0  0  0  0  0  0  0  0  0
    3.1971    0.7231    0.1214 C   0  0  0  0  0  0  0  0  0  0  0  0
    1.9486    2.0165    0.4038 C   0  0  0  0  0  0  0  0  0  0  0  0
    0.2725    1.8589    0.1234 C   0  0  0  0  0  0  0  0  0  0  0  0
    0.4473    0.8187   -1.3521 C   0  0  0  0  0  0  0  0  0  0  0  0
  1  2  1  0  0  0  0
  1 12  1  0  0  0  0
  2  3  1  0  0  0  0
  3  4  1  0  0  0  0
  4  5  1  0  0  0  0
  4 11  1  0  0  0  0
  5  6  1  0  0  0  0
  6  7  1  0  0  0  0
  6  9  1  0  0  0  0
  6 10  1  0  0  0  0
  7  8  1  0  0  0  0
  8  9  1  0  0  0  0
 10 11  1  0  0  0  0
 11 12  1  0  0  0  0
M  END
