
 OpenBabel03222517393D

 15 20  0  0  0  0  0  0  0  0999 V2000
   -1.7666    0.2203    0.3274 C   0  0  0  0  0  0  0  0  0  0  0  0
   -0.4065    0.9842    0.2618 C   0  0  0  0  0  0  0  0  0  0  0  0
    0.5990   -0.1019    0.0063 C   0  0  0  0  0  0  0  0  0  0  0  0
    1.9190    0.1878   -0.6862 C   0  0  0  0  0  0  0  0  0  0  0  0
    1.9144   -0.1179    0.7763 C   0  0  0  0  0  0  0  0  0  0  0  0
   -0.1995   -1.3518   -0.2874 C   0  0  0  0  0  0  0  0  0  0  0  0
   -1.4664   -1.2822    0.6367 C   0  0  0  0  0  0  0  0  0  0  0  0
   -1.5687   -2.9434    1.2261 C   0  0  0  0  0  0  0  0  0  0  0  0
   -0.5954   -3.3126    2.3545 C   0  0  0  0  0  0  0  0  0  0  0  0
    0.9274   -3.5324    2.6463 C   0  0  0  0  0  0  0  0  0  0  0  0
    0.5018   -2.5383    1.7506 C   0  0  0  0  0  0  0  0  0  0  0  0
    0.3322   -2.6695    0.1598 C   0  0  0  0  0  0  0  0  0  0  0  0
   -0.9515   -3.5819   -0.0343 C   0  0  0  0  0  0  0  0  0  0  0  0
   -2.3644   -3.4729   -0.8592 C   0  0  0  0  0  0  0  0  0  0  0  0
   -1.2357   -4.0045   -1.5434 C   0  0  0  0  0  0  0  0  0  0  0  0
  1  2  1  0  0  0  0
  1  7  1  0  0  0  0
  2  3  1  0  0  0  0
  3  4  1  0  0  0  0
  3  5  1  0  0  0  0
  3  6  1  0  0  0  0
  4  5  1  0  0  0  0
  6  7  1  0  0  0  0
  6 12  1  0  0  0  0
  7  8  1  0  0  0  0
  8  9  1  0  0  0  0
  8 13  1  0  0  0  0
  9 10  1  0  0  0  0
  9 11  1  0  0  0  0
 10 11  1  0  0  0  0
 11 12  1  0  0  0  0
 12 13  1  0  0  0  0
 13 14  1  0  0  0  0
 13 15  1  0  0  0  0
 14 15  1  0  0  0  0
M  END
