
 OpenBabel03222517353D

 11 13  0  0  0  0  0  0  0  0999 V2000
   -0.8727    2.2337   -1.2848 C   0  0  0  0  0  0  0  0  0  0  0  0
    0.4287    2.0282   -0.4293 C   0  0  0  0  0  0  0  0  0  0  0  0
    1.5302    1.7235   -1.6528 C   0  0  0  0  0  0  0  0  0  0  0  0
    0.8280    1.0014   -3.0898 C   0  0  0  0  0  0  0  0  0  0  0  0
    0.1777    2.1575   -3.8078 C   0  0  0  0  0  0  0  0  0  0  0  0
   -1.2498    2.2927   -4.6059 C   0  0  0  0  0  0  0  0  0  0  0  0
   -1.4027    3.6565   -4.2973 C   0  0  0  0  0  0  0  0  0  0  0  0
   -1.2319    3.7411   -2.5809 C   0  0  0  0  0  0  0  0  0  0  0  0
    0.0203    4.7494   -2.9719 C   0  0  0  0  0  0  0  0  0  0  0  0
    0.9635    3.6216   -2.9964 C   0  0  0  0  0  0  0  0  0  0  0  0
    1.9127    3.2011   -1.8874 C   0  0  0  0  0  0  0  0  0  0  0  0
  1  2  1  0  0  0  0
  1  8  1  0  0  0  0
  2  3  1  0  0  0  0
  3  4  1  0  0  0  0
  3 11  1  0  0  0  0
  4  5  1  0  0  0  0
  5  6  1  0  0  0  0
  5 10  1  0  0  0  0
  6  7  1  0  0  0  0
  7  8  1  0  0  0  0
  8  9  1  0  0  0  0
  9 10  1  0  0  0  0
 10 11  1  0  0  0  0
M  END
