
 OpenBabel03222517373D

 14 17  0  0  0  0  0  0  0  0999 V2000
   -1.4658    3.1906    0.4999 C   0  0  0  0  0  0  0  0  0  0  0  0
   -0.0996    3.3239   -0.2993 C   0  0  0  0  0  0  0  0  0  0  0  0
    0.0705    1.8586    0.2433 C   0  0  0  0  0  0  0  0  0  0  0  0
   -1.4843    1.8388   -0.1612 C   0  0  0  0  0  0  0  0  0  0  0  0
   -2.6037    0.9553    0.2925 C   0  0  0  0  0  0  0  0  0  0  0  0
   -2.1319   -0.4229   -0.0769 C   0  0  0  0  0  0  0  0  0  0  0  0
   -0.5828   -0.5832    0.3472 C   0  0  0  0  0  0  0  0  0  0  0  0
   -0.0813   -1.8422   -0.2065 C   0  0  0  0  0  0  0  0  0  0  0  0
    0.1175   -3.3568    0.1521 C   0  0  0  0  0  0  0  0  0  0  0  0
    1.4526   -3.1028   -0.6930 C   0  0  0  0  0  0  0  0  0  0  0  0
    1.5050   -1.8613    0.1650 C   0  0  0  0  0  0  0  0  0  0  0  0
    2.6148   -0.9327   -0.2198 C   0  0  0  0  0  0  0  0  0  0  0  0
    2.1035    0.4195    0.1887 C   0  0  0  0  0  0  0  0  0  0  0  0
    0.5593    0.5560   -0.2258 C   0  0  0  0  0  0  0  0  0  0  0  0
  1  2  1  0  0  0  0
  1  4  1  0  0  0  0
  2  3  1  0  0  0  0
  3  4  1  0  0  0  0
  3 14  1  0  0  0  0
  4  5  1  0  0  0  0
  5  6  1  0  0  0  0
  6  7  1  0  0  0  0
  7  8  1  0  0  0  0
  7 14  1  0  0  0  0
  8  9  1  0  0  0  0
  8 11  1  0  0  0  0
  9 10  1  0  0  0  0
 10 11  1  0  0  0  0
 11 12  1  0  0  0  0
 12 13  1  0  0  0  0
 13 14  1  0  0  0  0
M  END
