
 OpenBabel03222517363D

 12 15  0  0  0  0  0  0  0  0999 V2000
   -2.3172   -0.1531   -0.5437 C   0  0  0  0  0  0  0  0  0  0  0  0
   -1.0561   -0.2762   -1.2463 C   0  0  0  0  0  0  0  0  0  0  0  0
   -0.1254   -0.0684   -0.0063 C   0  0  0  0  0  0  0  0  0  0  0  0
   -1.1378   -0.1197    1.3258 C   0  0  0  0  0  0  0  0  0  0  0  0
   -1.9292    0.9284    0.6135 C   0  0  0  0  0  0  0  0  0  0  0  0
   -0.4161    1.8522    0.9178 C   0  0  0  0  0  0  0  0  0  0  0  0
    0.4519    1.3687   -0.1715 C   0  0  0  0  0  0  0  0  0  0  0  0
    1.9439    1.0198   -0.5344 C   0  0  0  0  0  0  0  0  0  0  0  0
    2.8803    0.0926    0.2825 C   0  0  0  0  0  0  0  0  0  0  0  0
    2.2405   -1.2852    0.2865 C   0  0  0  0  0  0  0  0  0  0  0  0
    0.9212   -0.9927   -0.4145 C   0  0  0  0  0  0  0  0  0  0  0  0
    1.5578   -0.0819   -1.5602 C   0  0  0  0  0  0  0  0  0  0  0  0
  1  2  1  0  0  0  0
  1  5  1  0  0  0  0
  2  3  1  0  0  0  0
  3  4  1  0  0  0  0
  3  7  1  0  0  0  0
  3 11  1  0  0  0  0
  4  5  1  0  0  0  0
  5  6  1  0  0  0  0
  6  7  1  0  0  0  0
  7  8  1  0  0  0  0
  8  9  1  0  0  0  0
  8 12  1  0  0  0  0
  9 10  1  0  0  0  0
 10 11  1  0  0  0  0
 11 12  1  0  0  0  0
M  END
