
 OpenBabel03222517363D

 12 14  0  0  0  0  0  0  0  0999 V2000
   -3.0442   -1.1396    0.1685 C   0  0  0  0  0  0  0  0  0  0  0  0
   -2.0056   -2.0736   -0.4119 C   0  0  0  0  0  0  0  0  0  0  0  0
   -0.7898   -1.5121    0.3102 C   0  0  0  0  0  0  0  0  0  0  0  0
    0.4911   -2.0331   -0.2959 C   0  0  0  0  0  0  0  0  0  0  0  0
    1.5813   -1.1891    0.2945 C   0  0  0  0  0  0  0  0  0  0  0  0
    1.4765    0.1537   -0.3949 C   0  0  0  0  0  0  0  0  0  0  0  0
    2.5180    1.0875    0.1795 C   0  0  0  0  0  0  0  0  0  0  0  0
    1.9666    2.4437   -0.1682 C   0  0  0  0  0  0  0  0  0  0  0  0
    0.4539    2.3090    0.0867 C   0  0  0  0  0  0  0  0  0  0  0  0
    0.1019    0.8716   -0.3699 C   0  0  0  0  0  0  0  0  0  0  0  0
   -1.0128    0.0655    0.3493 C   0  0  0  0  0  0  0  0  0  0  0  0
   -2.4354    0.1857   -0.2809 C   0  0  0  0  0  0  0  0  0  0  0  0
  1  2  1  0  0  0  0
  1 12  1  0  0  0  0
  2  3  1  0  0  0  0
  3  4  1  0  0  0  0
  3  7  1  0  0  0  0
  4  5  1  0  0  0  0
  5  6  1  0  0  0  0
  6  7  1  0  0  0  0
  7  8  1  0  0  0  0
  8  9  1  0  0  0  0
  8 11  1  0  0  0  0
  9 10  1  0  0  0  0
 10 11  1  0  0  0  0
 11 12  1  0  0  0  0
M  END
