
 OpenBabel03222517363D

 10 12  0  0  0  0  0  0  0  0999 V2000
    1.7165    0.5604    0.4471 C   0  0  0  0  0  0  0  0  0  0  0  0
    1.1256    1.9499    0.2103 C   0  0  0  0  0  0  0  0  0  0  0  0
    0.9250    1.8532   -1.2845 C   0  0  0  0  0  0  0  0  0  0  0  0
    0.1436    0.5109   -1.2653 C   0  0  0  0  0  0  0  0  0  0  0  0
    0.3974   -0.0929    0.2910 C   0  0  0  0  0  0  0  0  0  0  0  0
    0.3671   -0.7212   -2.2021 C   0  0  0  0  0  0  0  0  0  0  0  0
   -1.0687   -0.8927   -1.8213 C   0  0  0  0  0  0  0  0  0  0  0  0
   -1.6597   -1.4044   -0.4653 C   0  0  0  0  0  0  0  0  0  0  0  0
   -1.9478   -2.1128   -1.7578 C   0  0  0  0  0  0  0  0  0  0  0  0
   -1.2434    0.5464   -2.0522 C   0  0  0  0  0  0  0  0  0  0  0  0
  1  2  1  0  0  0  0
  1  5  1  0  0  0  0
  2  3  1  0  0  0  0
  3  4  1  0  0  0  0
  4  5  1  0  0  0  0
  4  6  1  0  0  0  0
  4 10  1  0  0  0  0
  6  7  1  0  0  0  0
  7  8  1  0  0  0  0
  7  9  1  0  0  0  0
  7 10  1  0  0  0  0
  8  9  1  0  0  0  0
M  END
