
 OpenBabel03222517353D

  8 11  0  0  0  0  0  0  0  0999 V2000
   -1.5862    0.2695    0.8454 C   0  0  0  0  0  0  0  0  0  0  0  0
   -1.0579    1.4692    0.0516 C   0  0  0  0  0  0  0  0  0  0  0  0
    0.0277    0.8939   -0.8829 C   0  0  0  0  0  0  0  0  0  0  0  0
   -0.1316   -0.6905   -0.9960 C   0  0  0  0  0  0  0  0  0  0  0  0
   -0.6267   -0.8506    0.4902 C   0  0  0  0  0  0  0  0  0  0  0  0
    0.7776   -0.4768    0.8422 C   0  0  0  0  0  0  0  0  0  0  0  0
    1.2517    0.5499   -0.0956 C   0  0  0  0  0  0  0  0  0  0  0  0
    1.2330   -0.8575   -0.5174 C   0  0  0  0  0  0  0  0  0  0  0  0
  1  2  1  0  0  0  0
  1  5  1  0  0  0  0
  2  3  1  0  0  0  0
  3  4  1  0  0  0  0
  3  7  1  0  0  0  0
  4  5  1  0  0  0  0
  4  8  1  0  0  0  0
  5  6  1  0  0  0  0
  6  7  1  0  0  0  0
  6  8  1  0  0  0  0
  7  8  1  0  0  0  0
M  END
