
 OpenBabel03222517353D

 10 12  0  0  0  0  0  0  0  0999 V2000
   -1.2079   -0.4021    1.0376 C   0  0  0  0  0  0  0  0  0  0  0  0
   -1.3168   -1.2256   -0.2982 C   0  0  0  0  0  0  0  0  0  0  0  0
    0.0683   -1.2403   -1.1814 C   0  0  0  0  0  0  0  0  0  0  0  0
    1.5422   -0.2945   -0.8198 C   0  0  0  0  0  0  0  0  0  0  0  0
    1.5930    1.2074   -0.1565 C   0  0  0  0  0  0  0  0  0  0  0  0
    0.1588    1.3229   -0.2581 C   0  0  0  0  0  0  0  0  0  0  0  0
    0.1321    0.3140    1.1225 C   0  0  0  0  0  0  0  0  0  0  0  0
    1.7066   -0.8125    1.5313 C   0  0  0  0  0  0  0  0  0  0  0  0
    1.9966   -2.2303    0.5165 C   0  0  0  0  0  0  0  0  0  0  0  0
    0.9725   -1.6484   -0.1159 C   0  0  0  0  0  0  0  0  0  0  0  0
  1  2  1  0  0  0  0
  1  7  1  0  0  0  0
  2  3  1  0  0  0  0
  3  4  1  0  0  0  0
  3 10  1  0  0  0  0
  4  5  1  0  0  0  0
  4 10  1  0  0  0  0
  5  6  1  0  0  0  0
  6  7  1  0  0  0  0
  7  8  1  0  0  0  0
  8  9  1  0  0  0  0
  9 10  1  0  0  0  0
M  END
