
 OpenBabel03222517353D

  9 11  0  0  0  0  0  0  0  0999 V2000
   -1.8356   -0.2629    0.3258 C   0  0  0  0  0  0  0  0  0  0  0  0
   -1.3513   -1.4004   -0.3688 C   0  0  0  0  0  0  0  0  0  0  0  0
    0.0413   -0.7714   -0.2370 C   0  0  0  0  0  0  0  0  0  0  0  0
   -0.1787    0.7412    1.1241 C   0  0  0  0  0  0  0  0  0  0  0  0
   -1.3965    1.9270    0.2164 C   0  0  0  0  0  0  0  0  0  0  0  0
   -0.9380    1.0663   -0.7332 C   0  0  0  0  0  0  0  0  0  0  0  0
    0.7617    1.5592   -0.7182 C   0  0  0  0  0  0  0  0  0  0  0  0
    1.2746    0.1860   -0.5200 C   0  0  0  0  0  0  0  0  0  0  0  0
    1.3683   -0.0219    1.0353 C   0  0  0  0  0  0  0  0  0  0  0  0
  1  2  1  0  0  0  0
  1  5  1  0  0  0  0
  2  3  1  0  0  0  0
  3  4  1  0  0  0  0
  3  9  1  0  0  0  0
  4  5  1  0  0  0  0
  5  6  1  0  0  0  0
  6  7  1  0  0  0  0
  7  8  1  0  0  0  0
  7  9  1  0  0  0  0
  8  9  1  0  0  0  0
M  END
