
 OpenBabel03222517383D

 14 17  0  0  0  0  0  0  0  0999 V2000
    2.6551   -0.2394    0.2589 C   0  0  0  0  0  0  0  0  0  0  0  0
    1.8043   -1.4965    0.0836 C   0  0  0  0  0  0  0  0  0  0  0  0
    0.3996   -1.3333    0.6845 C   0  0  0  0  0  0  0  0  0  0  0  0
   -0.4139   -0.0633    0.1887 C   0  0  0  0  0  0  0  0  0  0  0  0
   -1.7406    0.3935    0.8833 C   0  0  0  0  0  0  0  0  0  0  0  0
   -2.9008    0.0990    0.0103 C   0  0  0  0  0  0  0  0  0  0  0  0
   -2.2428   -0.6447   -1.1347 C   0  0  0  0  0  0  0  0  0  0  0  0
   -0.8244   -0.0399   -1.2649 C   0  0  0  0  0  0  0  0  0  0  0  0
   -0.6591    1.4586   -1.6453 C   0  0  0  0  0  0  0  0  0  0  0  0
   -0.2266    2.2399   -0.3486 C   0  0  0  0  0  0  0  0  0  0  0  0
    0.4163    1.1180    0.5715 C   0  0  0  0  0  0  0  0  0  0  0  0
    1.8391    0.9773   -0.0776 C   0  0  0  0  0  0  0  0  0  0  0  0
    0.0395    1.0195    2.2795 C   0  0  0  0  0  0  0  0  0  0  0  0
   -1.3817    0.1102    2.2886 C   0  0  0  0  0  0  0  0  0  0  0  0
  1  2  1  0  0  0  0
  1 12  1  0  0  0  0
  2  3  1  0  0  0  0
  3  4  1  0  0  0  0
  4  5  1  0  0  0  0
  4  8  1  0  0  0  0
  4 11  1  0  0  0  0
  5  6  1  0  0  0  0
  5 14  1  0  0  0  0
  6  7  1  0  0  0  0
  7  8  1  0  0  0  0
  8  9  1  0  0  0  0
  9 10  1  0  0  0  0
 10 11  1  0  0  0  0
 11 12  1  0  0  0  0
 11 13  1  0  0  0  0
 13 14  1  0  0  0  0
M  END
