
 OpenBabel03222517373D

 15 17  0  0  0  0  0  0  0  0999 V2000
   -3.7225   -0.9978   -0.5162 C   0  0  0  0  0  0  0  0  0  0  0  0
   -2.7060   -1.8782    0.1417 C   0  0  0  0  0  0  0  0  0  0  0  0
   -1.3663   -1.7844   -0.5894 C   0  0  0  0  0  0  0  0  0  0  0  0
   -0.6081   -1.0388    0.4674 C   0  0  0  0  0  0  0  0  0  0  0  0
    0.8421   -1.4264    0.5307 C   0  0  0  0  0  0  0  0  0  0  0  0
    1.6016   -0.3998   -0.2009 C   0  0  0  0  0  0  0  0  0  0  0  0
    3.0734   -0.8379    0.0567 C   0  0  0  0  0  0  0  0  0  0  0  0
    4.0128    0.2762   -0.3283 C   0  0  0  0  0  0  0  0  0  0  0  0
    3.4512    1.5220    0.3103 C   0  0  0  0  0  0  0  0  0  0  0  0
    2.2595    1.9712   -0.5474 C   0  0  0  0  0  0  0  0  0  0  0  0
    1.2586    1.1198    0.1512 C   0  0  0  0  0  0  0  0  0  0  0  0
   -0.1677    1.6538    0.1750 C   0  0  0  0  0  0  0  0  0  0  0  0
   -1.1019    0.5207    0.4941 C   0  0  0  0  0  0  0  0  0  0  0  0
   -2.3155    0.9820   -0.3746 C   0  0  0  0  0  0  0  0  0  0  0  0
   -3.6108    0.3858    0.1064 C   0  0  0  0  0  0  0  0  0  0  0  0
  1  2  1  0  0  0  0
  1 15  1  0  0  0  0
  2  3  1  0  0  0  0
  3  4  1  0  0  0  0
  4  5  1  0  0  0  0
  4 13  1  0  0  0  0
  5  6  1  0  0  0  0
  6  7  1  0  0  0  0
  6 12  1  0  0  0  0
  7  8  1  0  0  0  0
  8  9  1  0  0  0  0
  9 10  1  0  0  0  0
 10 11  1  0  0  0  0
 11 12  1  0  0  0  0
 12 13  1  0  0  0  0
 13 14  1  0  0  0  0
 14 15  1  0  0  0  0
M  END
