
 OpenBabel03222517353D

  8 10  0  0  0  0  0  0  0  0999 V2000
   -0.9954    0.7184    1.1125 C   0  0  0  0  0  0  0  0  0  0  0  0
   -1.2382    0.5031   -0.3952 C   0  0  0  0  0  0  0  0  0  0  0  0
   -0.2258    1.6296   -0.6691 C   0  0  0  0  0  0  0  0  0  0  0  0
    0.4859    1.1256    0.5751 C   0  0  0  0  0  0  0  0  0  0  0  0
    1.3914   -0.1170    0.5729 C   0  0  0  0  0  0  0  0  0  0  0  0
    1.3743   -1.6277    0.7354 C   0  0  0  0  0  0  0  0  0  0  0  0
    0.6954   -1.1290   -0.4894 C   0  0  0  0  0  0  0  0  0  0  0  0
   -0.7874   -0.9082   -0.7454 C   0  0  0  0  0  0  0  0  0  0  0  0
  1  2  1  0  0  0  0
  1  8  1  0  0  0  0
  2  3  1  0  0  0  0
  3  4  1  0  0  0  0
  3  7  1  0  0  0  0
  4  5  1  0  0  0  0
  4  8  1  0  0  0  0
  5  6  1  0  0  0  0
  6  7  1  0  0  0  0
  7  8  1  0  0  0  0
M  END
