
 OpenBabel03222517363D

 12 14  0  0  0  0  0  0  0  0999 V2000
   -0.1989   -0.3725    0.3010 C   0  0  0  0  0  0  0  0  0  0  0  0
   -0.2679    0.9327    1.1049 C   0  0  0  0  0  0  0  0  0  0  0  0
    0.9529    1.7340    0.7516 C   0  0  0  0  0  0  0  0  0  0  0  0
    0.9152    2.9494   -0.4081 C   0  0  0  0  0  0  0  0  0  0  0  0
    0.9037    2.2193   -1.6870 C   0  0  0  0  0  0  0  0  0  0  0  0
    2.2772    1.4597   -1.5576 C   0  0  0  0  0  0  0  0  0  0  0  0
    2.0250    0.0641   -2.2815 C   0  0  0  0  0  0  0  0  0  0  0  0
    2.5222   -1.1631   -1.5788 C   0  0  0  0  0  0  0  0  0  0  0  0
    2.1737   -1.0222   -0.0792 C   0  0  0  0  0  0  0  0  0  0  0  0
    0.7053   -1.5731    0.1484 C   0  0  0  0  0  0  0  0  0  0  0  0
    2.3474    0.5513    0.5543 C   0  0  0  0  0  0  0  0  0  0  0  0
    3.0296    1.4911   -0.0393 C   0  0  0  0  0  0  0  0  0  0  0  0
  1  2  1  0  0  0  0
  1 10  1  0  0  0  0
  2  3  1  0  0  0  0
  3  4  1  0  0  0  0
  3 12  1  0  0  0  0
  4  5  1  0  0  0  0
  5  6  1  0  0  0  0
  6  7  1  0  0  0  0
  6 11  1  0  0  0  0
  7  8  1  0  0  0  0
  8  9  1  0  0  0  0
  9 10  1  0  0  0  0
  9 11  1  0  0  0  0
 11 12  1  0  0  0  0
M  END
