
 OpenBabel03222517353D

 10 13  0  0  0  0  0  0  0  0999 V2000
    1.0101   -0.4405   -0.7085 C   0  0  0  0  0  0  0  0  0  0  0  0
    0.7226    1.0184   -0.6367 C   0  0  0  0  0  0  0  0  0  0  0  0
    1.0128    0.9610   -2.1261 C   0  0  0  0  0  0  0  0  0  0  0  0
    0.7567   -0.5228   -2.3660 C   0  0  0  0  0  0  0  0  0  0  0  0
   -0.3325    0.0188   -3.5254 C   0  0  0  0  0  0  0  0  0  0  0  0
   -1.1638    0.1202   -2.2813 C   0  0  0  0  0  0  0  0  0  0  0  0
   -2.4172    0.8608   -1.8404 C   0  0  0  0  0  0  0  0  0  0  0  0
   -2.1632    2.0678   -2.6879 C   0  0  0  0  0  0  0  0  0  0  0  0
   -1.0610    1.4860   -3.6866 C   0  0  0  0  0  0  0  0  0  0  0  0
   -0.1498    1.6979   -2.5658 C   0  0  0  0  0  0  0  0  0  0  0  0
  1  2  1  0  0  0  0
  1  4  1  0  0  0  0
  2  3  1  0  0  0  0
  3  4  1  0  0  0  0
  3 10  1  0  0  0  0
  4  5  1  0  0  0  0
  5  6  1  0  0  0  0
  5  9  1  0  0  0  0
  6  7  1  0  0  0  0
  6 10  1  0  0  0  0
  7  8  1  0  0  0  0
  8  9  1  0  0  0  0
  9 10  1  0  0  0  0
M  END
