
 OpenBabel03222517353D

 11 11  0  0  0  0  0  0  0  0999 V2000
    0.0273    2.4264    0.3855 C   0  0  0  0  0  0  0  0  0  0  0  0
   -1.4118    2.1740   -0.0979 C   0  0  0  0  0  0  0  0  0  0  0  0
   -1.9712    0.8397    0.4178 C   0  0  0  0  0  0  0  0  0  0  0  0
   -2.0359   -0.2480   -0.6607 C   0  0  0  0  0  0  0  0  0  0  0  0
   -1.9927   -1.6709   -0.0838 C   0  0  0  0  0  0  0  0  0  0  0  0
   -0.6670   -2.0241    0.6066 C   0  0  0  0  0  0  0  0  0  0  0  0
    0.5215   -2.0572   -0.3623 C   0  0  0  0  0  0  0  0  0  0  0  0
    1.8468   -1.6515    0.2960 C   0  0  0  0  0  0  0  0  0  0  0  0
    2.4918   -0.4126   -0.3542 C   0  0  0  0  0  0  0  0  0  0  0  0
    2.0868    0.9035    0.3312 C   0  0  0  0  0  0  0  0  0  0  0  0
    1.0736    1.7158   -0.4860 C   0  0  0  0  0  0  0  0  0  0  0  0
  1  2  1  0  0  0  0
  1 11  1  0  0  0  0
  2  3  1  0  0  0  0
  3  4  1  0  0  0  0
  4  5  1  0  0  0  0
  5  6  1  0  0  0  0
  6  7  1  0  0  0  0
  7  8  1  0  0  0  0
  8  9  1  0  0  0  0
  9 10  1  0  0  0  0
 10 11  1  0  0  0  0
M  END
