
 OpenBabel03222517363D

 11 13  0  0  0  0  0  0  0  0999 V2000
    1.0070    1.5775   -0.4127 C   0  0  0  0  0  0  0  0  0  0  0  0
    2.3438    1.1117   -0.7882 C   0  0  0  0  0  0  0  0  0  0  0  0
    2.3836   -0.3728    0.0290 C   0  0  0  0  0  0  0  0  0  0  0  0
    0.8776   -1.5315   -0.0017 C   0  0  0  0  0  0  0  0  0  0  0  0
   -0.8415   -1.8604   -0.7041 C   0  0  0  0  0  0  0  0  0  0  0  0
   -1.8614   -0.7660    0.1435 C   0  0  0  0  0  0  0  0  0  0  0  0
   -3.2404   -1.2506    0.6719 C   0  0  0  0  0  0  0  0  0  0  0  0
   -3.1558    0.0967    0.0258 C   0  0  0  0  0  0  0  0  0  0  0  0
   -1.0781    0.3642    0.4559 C   0  0  0  0  0  0  0  0  0  0  0  0
    0.2662   -0.2536    0.4152 C   0  0  0  0  0  0  0  0  0  0  0  0
    0.3896    0.3125   -0.9958 C   0  0  0  0  0  0  0  0  0  0  0  0
  1  2  1  0  0  0  0
  1  9  1  0  0  0  0
  2  3  1  0  0  0  0
  3  4  1  0  0  0  0
  4  5  1  0  0  0  0
  4 10  1  0  0  0  0
  5  6  1  0  0  0  0
  6  7  1  0  0  0  0
  6 11  1  0  0  0  0
  7  8  1  0  0  0  0
  8  9  1  0  0  0  0
  8 10  1  0  0  0  0
 10 11  1  0  0  0  0
M  END
