
 OpenBabel03222517353D

 10 12  0  0  0  0  0  0  0  0999 V2000
   -2.1260    0.0321   -0.5340 C   0  0  0  0  0  0  0  0  0  0  0  0
   -1.5447   -1.6541    0.2240 C   0  0  0  0  0  0  0  0  0  0  0  0
    0.1305   -2.0243   -0.0224 C   0  0  0  0  0  0  0  0  0  0  0  0
    0.1444   -0.8404   -0.6927 C   0  0  0  0  0  0  0  0  0  0  0  0
   -0.4935    0.1591    0.7205 C   0  0  0  0  0  0  0  0  0  0  0  0
   -1.2495    1.7610    0.8762 C   0  0  0  0  0  0  0  0  0  0  0  0
   -0.7334    1.5731   -0.4352 C   0  0  0  0  0  0  0  0  0  0  0  0
    1.1301    1.4346    0.1986 C   0  0  0  0  0  0  0  0  0  0  0  0
    2.0813   -0.0172    0.3075 C   0  0  0  0  0  0  0  0  0  0  0  0
    1.5249   -0.9683   -0.6442 C   0  0  0  0  0  0  0  0  0  0  0  0
  1  2  1  0  0  0  0
  1  6  1  0  0  0  0
  2  3  1  0  0  0  0
  3  4  1  0  0  0  0
  3  8  1  0  0  0  0
  4  5  1  0  0  0  0
  5  6  1  0  0  0  0
  6  7  1  0  0  0  0
  7  8  1  0  0  0  0
  8  9  1  0  0  0  0
  8 10  1  0  0  0  0
  9 10  1  0  0  0  0
M  END
