
 OpenBabel03222517363D

 11 13  0  0  0  0  0  0  0  0999 V2000
    2.5318   -0.6330    0.2611 C   0  0  0  0  0  0  0  0  0  0  0  0
    1.4716   -1.6520    0.2936 C   0  0  0  0  0  0  0  0  0  0  0  0
    0.1236   -1.0476    0.8974 C   0  0  0  0  0  0  0  0  0  0  0  0
   -0.8652   -1.6279   -0.0923 C   0  0  0  0  0  0  0  0  0  0  0  0
   -1.4996   -1.1112   -1.3858 C   0  0  0  0  0  0  0  0  0  0  0  0
   -2.2849    0.0904   -1.0286 C   0  0  0  0  0  0  0  0  0  0  0  0
   -1.5945    0.9334    0.1136 C   0  0  0  0  0  0  0  0  0  0  0  0
   -0.7844    2.2513    0.0173 C   0  0  0  0  0  0  0  0  0  0  0  0
    0.5161    1.2269   -0.2902 C   0  0  0  0  0  0  0  0  0  0  0  0
    2.0014    0.7025   -0.2465 C   0  0  0  0  0  0  0  0  0  0  0  0
   -0.1509    0.4485    0.8687 C   0  0  0  0  0  0  0  0  0  0  0  0
  1  2  1  0  0  0  0
  1 10  1  0  0  0  0
  2  3  1  0  0  0  0
  3  4  1  0  0  0  0
  4  5  1  0  0  0  0
  4  8  1  0  0  0  0
  4 11  1  0  0  0  0
  5  6  1  0  0  0  0
  6  7  1  0  0  0  0
  7  8  1  0  0  0  0
  8  9  1  0  0  0  0
  9 10  1  0  0  0  0
  9 11  1  0  0  0  0
M  END
