
 OpenBabel03222517353D

 10 12  0  0  0  0  0  0  0  0999 V2000
    1.5520   -1.5467   -0.7176 C   0  0  0  0  0  0  0  0  0  0  0  0
    1.7416   -0.3449    0.2215 C   0  0  0  0  0  0  0  0  0  0  0  0
    0.3233    0.0819    0.8858 C   0  0  0  0  0  0  0  0  0  0  0  0
   -0.8831   -1.1876    1.2512 C   0  0  0  0  0  0  0  0  0  0  0  0
   -0.8886   -1.6584   -0.1791 C   0  0  0  0  0  0  0  0  0  0  0  0
    0.5358   -2.3070    0.0293 C   0  0  0  0  0  0  0  0  0  0  0  0
   -1.3289   -0.1528   -0.6348 C   0  0  0  0  0  0  0  0  0  0  0  0
   -2.1856    0.8857    0.4726 C   0  0  0  0  0  0  0  0  0  0  0  0
   -1.2939    1.9885   -0.0541 C   0  0  0  0  0  0  0  0  0  0  0  0
   -0.2577    0.8757   -0.3187 C   0  0  0  0  0  0  0  0  0  0  0  0
  1  2  1  0  0  0  0
  1  6  1  0  0  0  0
  2  3  1  0  0  0  0
  3  4  1  0  0  0  0
  3 10  1  0  0  0  0
  4  5  1  0  0  0  0
  5  6  1  0  0  0  0
  5  7  1  0  0  0  0
  7  8  1  0  0  0  0
  7 10  1  0  0  0  0
  8  9  1  0  0  0  0
  9 10  1  0  0  0  0
M  END
