
 OpenBabel03222517363D

 12 14  0  0  0  0  0  0  0  0999 V2000
   -2.6849    0.5218   -1.0369 C   0  0  0  0  0  0  0  0  0  0  0  0
   -2.6864    1.4603    0.1772 C   0  0  0  0  0  0  0  0  0  0  0  0
   -1.2562    1.9026    0.5020 C   0  0  0  0  0  0  0  0  0  0  0  0
   -0.4130    0.6676    0.7871 C   0  0  0  0  0  0  0  0  0  0  0  0
   -1.1323   -0.7092    0.5045 C   0  0  0  0  0  0  0  0  0  0  0  0
   -2.1462   -0.8572   -0.6534 C   0  0  0  0  0  0  0  0  0  0  0  0
    0.3055   -1.2704    0.0578 C   0  0  0  0  0  0  0  0  0  0  0  0
    1.6740   -1.4914    0.7622 C   0  0  0  0  0  0  0  0  0  0  0  0
    2.9902   -1.0261    0.2379 C   0  0  0  0  0  0  0  0  0  0  0  0
    3.0245    0.2010   -0.6612 C   0  0  0  0  0  0  0  0  0  0  0  0
    1.6814    0.5938   -1.2124 C   0  0  0  0  0  0  0  0  0  0  0  0
    0.4501    0.2176   -0.4324 C   0  0  0  0  0  0  0  0  0  0  0  0
  1  2  1  0  0  0  0
  1  6  1  0  0  0  0
  2  3  1  0  0  0  0
  3  4  1  0  0  0  0
  4  5  1  0  0  0  0
  4  8  1  0  0  0  0
  5  6  1  0  0  0  0
  5  7  1  0  0  0  0
  7  8  1  0  0  0  0
  8  9  1  0  0  0  0
  8 12  1  0  0  0  0
  9 10  1  0  0  0  0
 10 11  1  0  0  0  0
 11 12  1  0  0  0  0
M  END
