
 OpenBabel03222517383D

 12 16  0  0  0  0  0  0  0  0999 V2000
    1.8230    1.5039   -0.7295 C   0  0  0  0  0  0  0  0  0  0  0  0
    2.0087    0.0545   -0.4131 C   0  0  0  0  0  0  0  0  0  0  0  0
    0.6473   -0.6092   -0.9634 C   0  0  0  0  0  0  0  0  0  0  0  0
   -0.2552   -1.9491   -0.0176 C   0  0  0  0  0  0  0  0  0  0  0  0
   -2.1122   -2.1413   -0.5881 C   0  0  0  0  0  0  0  0  0  0  0  0
   -2.4691   -0.5950   -0.3942 C   0  0  0  0  0  0  0  0  0  0  0  0
   -0.9663    0.5294   -0.9553 C   0  0  0  0  0  0  0  0  0  0  0  0
   -1.2472    0.7696    0.5009 C   0  0  0  0  0  0  0  0  0  0  0  0
    0.0970    0.6568    1.1062 C   0  0  0  0  0  0  0  0  0  0  0  0
    0.7572    1.9093    0.2772 C   0  0  0  0  0  0  0  0  0  0  0  0
   -0.4178   -1.0561    1.1905 C   0  0  0  0  0  0  0  0  0  0  0  0
   -1.2338   -0.7647    0.0148 C   0  0  0  0  0  0  0  0  0  0  0  0
  1  2  1  0  0  0  0
  1 10  1  0  0  0  0
  2  3  1  0  0  0  0
  3  4  1  0  0  0  0
  3  7  1  0  0  0  0
  4  5  1  0  0  0  0
  4 11  1  0  0  0  0
  5  6  1  0  0  0  0
  6  7  1  0  0  0  0
  6 12  1  0  0  0  0
  7  8  1  0  0  0  0
  8  9  1  0  0  0  0
  8 12  1  0  0  0  0
  9 10  1  0  0  0  0
  9 11  1  0  0  0  0
 11 12  1  0  0  0  0
M  END
