
 OpenBabel03222517353D

  7  9  0  0  0  0  0  0  0  0999 V2000
    1.7179    0.0000   -0.1642 C   0  0  0  0  0  0  0  0  0  0  0  0
    0.9746    1.2751    0.2770 C   0  0  0  0  0  0  0  0  0  0  0  0
   -0.4875    1.1560   -0.0191 C   0  0  0  0  0  0  0  0  0  0  0  0
   -1.2024    0.0004    0.6279 C   0  0  0  0  0  0  0  0  0  0  0  0
   -0.4871   -1.1553   -0.0183 C   0  0  0  0  0  0  0  0  0  0  0  0
    0.9741   -1.2731    0.2815 C   0  0  0  0  0  0  0  0  0  0  0  0
   -0.9244   -0.0001   -0.8774 C   0  0  0  0  0  0  0  0  0  0  0  0
  1  2  1  0  0  0  0
  1  6  1  0  0  0  0
  2  3  1  0  0  0  0
  3  4  1  0  0  0  0
  3  7  1  0  0  0  0
  4  5  1  0  0  0  0
  4  7  1  0  0  0  0
  5  6  1  0  0  0  0
  5  7  1  0  0  0  0
M  END
