
 OpenBabel03222517353D

 11 13  0  0  0  0  0  0  0  0999 V2000
    0.3237    1.5173    1.3560 C   0  0  0  0  0  0  0  0  0  0  0  0
   -0.9151    2.1605    0.2145 C   0  0  0  0  0  0  0  0  0  0  0  0
   -0.8914    0.7652    0.1868 C   0  0  0  0  0  0  0  0  0  0  0  0
   -1.9821   -0.0582   -0.8736 C   0  0  0  0  0  0  0  0  0  0  0  0
   -1.8825   -1.4727   -0.4368 C   0  0  0  0  0  0  0  0  0  0  0  0
   -0.4581   -1.1590   -0.2845 C   0  0  0  0  0  0  0  0  0  0  0  0
    0.7491   -1.8105   -0.2165 C   0  0  0  0  0  0  0  0  0  0  0  0
    1.2293   -0.3875    0.9236 C   0  0  0  0  0  0  0  0  0  0  0  0
    2.1718   -0.2863   -0.2357 C   0  0  0  0  0  0  0  0  0  0  0  0
    1.0632    0.6798   -0.2926 C   0  0  0  0  0  0  0  0  0  0  0  0
    0.4054    0.2186   -1.4233 C   0  0  0  0  0  0  0  0  0  0  0  0
  1  2  1  0  0  0  0
  1 11  1  0  0  0  0
  2  3  1  0  0  0  0
  3  4  1  0  0  0  0
  3 10  1  0  0  0  0
  4  5  1  0  0  0  0
  5  6  1  0  0  0  0
  6  7  1  0  0  0  0
  6  8  1  0  0  0  0
  7  8  1  0  0  0  0
  8  9  1  0  0  0  0
  9 10  1  0  0  0  0
 10 11  1  0  0  0  0
M  END
