
 OpenBabel03222517353D

 11 13  0  0  0  0  0  0  0  0999 V2000
   -1.6461    0.2114    0.6381 C   0  0  0  0  0  0  0  0  0  0  0  0
   -1.4174    1.4456    1.3012 C   0  0  0  0  0  0  0  0  0  0  0  0
   -0.2395    0.8881    0.4917 C   0  0  0  0  0  0  0  0  0  0  0  0
    0.5371    1.9658   -0.2428 C   0  0  0  0  0  0  0  0  0  0  0  0
    1.4932    1.3624   -1.2154 C   0  0  0  0  0  0  0  0  0  0  0  0
    1.2222   -0.1328   -1.2306 C   0  0  0  0  0  0  0  0  0  0  0  0
    1.4802   -1.2902   -0.2865 C   0  0  0  0  0  0  0  0  0  0  0  0
    0.0418   -0.9218    1.0064 C   0  0  0  0  0  0  0  0  0  0  0  0
   -0.6859   -2.1090    0.9582 C   0  0  0  0  0  0  0  0  0  0  0  0
   -0.5431   -1.0317   -0.1734 C   0  0  0  0  0  0  0  0  0  0  0  0
   -0.4868   -0.6346   -1.6040 C   0  0  0  0  0  0  0  0  0  0  0  0
  1  2  1  0  0  0  0
  1 11  1  0  0  0  0
  2  3  1  0  0  0  0
  3  4  1  0  0  0  0
  3  9  1  0  0  0  0
  4  5  1  0  0  0  0
  5  6  1  0  0  0  0
  6  7  1  0  0  0  0
  6 10  1  0  0  0  0
  7  8  1  0  0  0  0
  8  9  1  0  0  0  0
  9 10  1  0  0  0  0
 10 11  1  0  0  0  0
M  END
