
 OpenBabel03222517363D

 12 14  0  0  0  0  0  0  0  0999 V2000
    1.7949    1.3654   -0.8019 C   0  0  0  0  0  0  0  0  0  0  0  0
    2.5027    0.1107   -0.3864 C   0  0  0  0  0  0  0  0  0  0  0  0
    1.6325   -1.1402   -0.5361 C   0  0  0  0  0  0  0  0  0  0  0  0
    0.3577   -1.0979   -1.4786 C   0  0  0  0  0  0  0  0  0  0  0  0
   -0.8291   -1.3575   -0.5311 C   0  0  0  0  0  0  0  0  0  0  0  0
   -2.2546   -0.8250   -0.7111 C   0  0  0  0  0  0  0  0  0  0  0  0
   -2.4657    0.6626   -0.4205 C   0  0  0  0  0  0  0  0  0  0  0  0
   -1.7489    1.1673    0.8374 C   0  0  0  0  0  0  0  0  0  0  0  0
   -0.2799    0.7142    0.9035 C   0  0  0  0  0  0  0  0  0  0  0  0
    0.5681    1.7144    0.0380 C   0  0  0  0  0  0  0  0  0  0  0  0
   -0.2857   -0.8354    0.7905 C   0  0  0  0  0  0  0  0  0  0  0  0
    1.0729   -1.4726    0.8413 C   0  0  0  0  0  0  0  0  0  0  0  0
  1  2  1  0  0  0  0
  1 10  1  0  0  0  0
  2  3  1  0  0  0  0
  3  4  1  0  0  0  0
  3 12  1  0  0  0  0
  4  5  1  0  0  0  0
  5  6  1  0  0  0  0
  5 11  1  0  0  0  0
  6  7  1  0  0  0  0
  7  8  1  0  0  0  0
  8  9  1  0  0  0  0
  9 10  1  0  0  0  0
  9 11  1  0  0  0  0
 11 12  1  0  0  0  0
M  END
