
 OpenBabel03222517383D

 12 15  0  0  0  0  0  0  0  0999 V2000
   -2.6513    0.6494   -0.4717 C   0  0  0  0  0  0  0  0  0  0  0  0
   -2.5089   -0.8604   -0.6554 C   0  0  0  0  0  0  0  0  0  0  0  0
   -1.0456   -1.2915   -0.8149 C   0  0  0  0  0  0  0  0  0  0  0  0
   -0.2145   -0.8424    0.3860 C   0  0  0  0  0  0  0  0  0  0  0  0
   -0.3996    0.6273    0.7264 C   0  0  0  0  0  0  0  0  0  0  0  0
   -1.8121    1.1750    0.6708 C   0  0  0  0  0  0  0  0  0  0  0  0
    0.7839    1.4949    0.2375 C   0  0  0  0  0  0  0  0  0  0  0  0
    1.6494    1.0942   -0.9869 C   0  0  0  0  0  0  0  0  0  0  0  0
    2.2165   -0.2247   -0.5603 C   0  0  0  0  0  0  0  0  0  0  0  0
    2.2739   -0.1857    0.9203 C   0  0  0  0  0  0  0  0  0  0  0  0
    1.8554    1.1838    1.3583 C   0  0  0  0  0  0  0  0  0  0  0  0
    1.2732   -1.1515    0.2842 C   0  0  0  0  0  0  0  0  0  0  0  0
  1  2  1  0  0  0  0
  1  6  1  0  0  0  0
  2  3  1  0  0  0  0
  3  4  1  0  0  0  0
  4  5  1  0  0  0  0
  4 12  1  0  0  0  0
  5  6  1  0  0  0  0
  5  7  1  0  0  0  0
  7  8  1  0  0  0  0
  7 11  1  0  0  0  0
  8  9  1  0  0  0  0
  9 10  1  0  0  0  0
  9 12  1  0  0  0  0
 10 11  1  0  0  0  0
 10 12  1  0  0  0  0
M  END
