
 OpenBabel03222517353D

  9 11  0  0  0  0  0  0  0  0999 V2000
   -1.9059    0.0202   -0.7486 C   0  0  0  0  0  0  0  0  0  0  0  0
   -1.2636   -1.2728   -0.2461 C   0  0  0  0  0  0  0  0  0  0  0  0
    0.0547   -1.2010    0.5253 C   0  0  0  0  0  0  0  0  0  0  0  0
    1.2652   -1.4283   -0.3899 C   0  0  0  0  0  0  0  0  0  0  0  0
    1.7877   -0.0445   -0.7597 C   0  0  0  0  0  0  0  0  0  0  0  0
    1.2421    0.9223    0.2360 C   0  0  0  0  0  0  0  0  0  0  0  0
   -0.1908    1.3619    0.5518 C   0  0  0  0  0  0  0  0  0  0  0  0
   -1.2829    1.3631   -0.4200 C   0  0  0  0  0  0  0  0  0  0  0  0
    0.3252    0.1265    1.1695 C   0  0  0  0  0  0  0  0  0  0  0  0
  1  2  1  0  0  0  0
  1  8  1  0  0  0  0
  2  3  1  0  0  0  0
  3  4  1  0  0  0  0
  3  9  1  0  0  0  0
  4  5  1  0  0  0  0
  5  6  1  0  0  0  0
  6  7  1  0  0  0  0
  6  9  1  0  0  0  0
  7  8  1  0  0  0  0
  7  9  1  0  0  0  0
M  END
