
 OpenBabel03222517373D

 15 17  0  0  0  0  0  0  0  0999 V2000
   -3.6985   -0.9665   -0.4461 C   0  0  0  0  0  0  0  0  0  0  0  0
   -2.8051   -1.9979    0.1971 C   0  0  0  0  0  0  0  0  0  0  0  0
   -1.4479   -2.0215   -0.5106 C   0  0  0  0  0  0  0  0  0  0  0  0
   -0.5034   -1.4681    0.5689 C   0  0  0  0  0  0  0  0  0  0  0  0
    0.9113   -2.0483    0.4222 C   0  0  0  0  0  0  0  0  0  0  0  0
    1.5361   -1.4290   -0.7440 C   0  0  0  0  0  0  0  0  0  0  0  0
    1.8181    0.0723   -0.5695 C   0  0  0  0  0  0  0  0  0  0  0  0
    3.0561    0.3522    0.3371 C   0  0  0  0  0  0  0  0  0  0  0  0
    2.9322    1.7031    1.0412 C   0  0  0  0  0  0  0  0  0  0  0  0
    2.3924    2.7143    0.0555 C   0  0  0  0  0  0  0  0  0  0  0  0
    0.9001    2.4332   -0.0057 C   0  0  0  0  0  0  0  0  0  0  0  0
    0.5481    0.9120   -0.1593 C   0  0  0  0  0  0  0  0  0  0  0  0
   -0.6300    0.1526    0.5934 C   0  0  0  0  0  0  0  0  0  0  0  0
   -1.9982    0.8459   -0.0070 C   0  0  0  0  0  0  0  0  0  0  0  0
   -3.4198    0.3447    0.2860 C   0  0  0  0  0  0  0  0  0  0  0  0
  1  2  1  0  0  0  0
  1 15  1  0  0  0  0
  2  3  1  0  0  0  0
  3  4  1  0  0  0  0
  4  5  1  0  0  0  0
  4  8  1  0  0  0  0
  5  6  1  0  0  0  0
  6  7  1  0  0  0  0
  7  8  1  0  0  0  0
  8  9  1  0  0  0  0
  9 10  1  0  0  0  0
 10 11  1  0  0  0  0
 10 14  1  0  0  0  0
 11 12  1  0  0  0  0
 12 13  1  0  0  0  0
 13 14  1  0  0  0  0
 14 15  1  0  0  0  0
M  END
