
 OpenBabel03222517383D

 14 17  0  0  0  0  0  0  0  0999 V2000
    1.4819    0.8089    1.0975 C   0  0  0  0  0  0  0  0  0  0  0  0
    0.6521    0.2299    2.2351 C   0  0  0  0  0  0  0  0  0  0  0  0
    0.8042    1.6740    2.2637 C   0  0  0  0  0  0  0  0  0  0  0  0
    0.1139    1.8523    0.3773 C   0  0  0  0  0  0  0  0  0  0  0  0
   -1.0546    1.0372    0.2596 C   0  0  0  0  0  0  0  0  0  0  0  0
   -0.3667    0.1196   -0.8785 C   0  0  0  0  0  0  0  0  0  0  0  0
    1.5257    0.1281   -1.2488 C   0  0  0  0  0  0  0  0  0  0  0  0
    1.7751    1.5306   -0.7817 C   0  0  0  0  0  0  0  0  0  0  0  0
    1.4154    2.2947   -1.9933 C   0  0  0  0  0  0  0  0  0  0  0  0
    0.0275    1.9788   -2.3539 C   0  0  0  0  0  0  0  0  0  0  0  0
   -0.2116    2.6905   -0.7640 C   0  0  0  0  0  0  0  0  0  0  0  0
    0.9112    2.8150    0.4338 C   0  0  0  0  0  0  0  0  0  0  0  0
   -1.5511    3.2381   -0.6933 C   0  0  0  0  0  0  0  0  0  0  0  0
   -2.1550    2.2731    0.2846 C   0  0  0  0  0  0  0  0  0  0  0  0
  1  2  1  0  0  0  0
  1 10  1  0  0  0  0
  2  3  1  0  0  0  0
  3  4  1  0  0  0  0
  4  5  1  0  0  0  0
  4  9  1  0  0  0  0
  4 14  1  0  0  0  0
  5  6  1  0  0  0  0
  6  7  1  0  0  0  0
  6 14  1  0  0  0  0
  7  8  1  0  0  0  0
  8  9  1  0  0  0  0
  9 10  1  0  0  0  0
  9 11  1  0  0  0  0
 11 12  1  0  0  0  0
 12 13  1  0  0  0  0
 13 14  1  0  0  0  0
M  END
