
 OpenBabel03222517373D

 13 16  0  0  0  0  0  0  0  0999 V2000
   -2.5125   -0.6727   -0.4110 C   0  0  0  0  0  0  0  0  0  0  0  0
   -2.7475    0.7859   -0.5826 C   0  0  0  0  0  0  0  0  0  0  0  0
   -1.4673    1.5806   -0.4234 C   0  0  0  0  0  0  0  0  0  0  0  0
   -0.7377    1.6798    0.8129 C   0  0  0  0  0  0  0  0  0  0  0  0
    0.4453    2.0117   -0.9751 C   0  0  0  0  0  0  0  0  0  0  0  0
    1.9668    1.4819   -0.6850 C   0  0  0  0  0  0  0  0  0  0  0  0
    2.8744    0.5131   -0.0260 C   0  0  0  0  0  0  0  0  0  0  0  0
    1.5514    0.0002   -0.2615 C   0  0  0  0  0  0  0  0  0  0  0  0
    1.6441   -1.2998    0.7038 C   0  0  0  0  0  0  0  0  0  0  0  0
    0.3385   -2.0649    0.8848 C   0  0  0  0  0  0  0  0  0  0  0  0
   -0.0648   -1.4815   -0.4044 C   0  0  0  0  0  0  0  0  0  0  0  0
   -1.1043   -0.6474   -0.1597 C   0  0  0  0  0  0  0  0  0  0  0  0
    0.1178    0.3125    0.0021 C   0  0  0  0  0  0  0  0  0  0  0  0
  1  2  1  0  0  0  0
  1 11  1  0  0  0  0
  2  3  1  0  0  0  0
  3  4  1  0  0  0  0
  3 12  1  0  0  0  0
  4  5  1  0  0  0  0
  5  6  1  0  0  0  0
  6  7  1  0  0  0  0
  6 13  1  0  0  0  0
  7  8  1  0  0  0  0
  8  9  1  0  0  0  0
  8 13  1  0  0  0  0
  9 10  1  0  0  0  0
 10 11  1  0  0  0  0
 10 12  1  0  0  0  0
 12 13  1  0  0  0  0
M  END
