
 OpenBabel03222517353D

  7  8  0  0  0  0  0  0  0  0999 V2000
   -1.7701    0.7213   -0.1005 C   0  0  0  0  0  0  0  0  0  0  0  0
   -1.7037   -0.7666    0.2201 C   0  0  0  0  0  0  0  0  0  0  0  0
   -0.3382   -1.1917   -0.3177 C   0  0  0  0  0  0  0  0  0  0  0  0
    0.5306    0.0089   -0.0493 C   0  0  0  0  0  0  0  0  0  0  0  0
   -0.3419    1.2300    0.1181 C   0  0  0  0  0  0  0  0  0  0  0  0
    1.9023    0.1543   -0.6701 C   0  0  0  0  0  0  0  0  0  0  0  0
    1.7787   -0.1676    0.7912 C   0  0  0  0  0  0  0  0  0  0  0  0
  1  2  1  0  0  0  0
  1  5  1  0  0  0  0
  2  3  1  0  0  0  0
  3  4  1  0  0  0  0
  4  5  1  0  0  0  0
  4  6  1  0  0  0  0
  4  7  1  0  0  0  0
  6  7  1  0  0  0  0
M  END
