
 OpenBabel03222517373D

 13 16  0  0  0  0  0  0  0  0999 V2000
   -2.4755   -1.2510   -0.6998 C   0  0  0  0  0  0  0  0  0  0  0  0
   -2.6589    0.2299   -0.5295 C   0  0  0  0  0  0  0  0  0  0  0  0
   -1.5633    0.8185    0.2870 C   0  0  0  0  0  0  0  0  0  0  0  0
   -1.4443    1.7586    1.4500 C   0  0  0  0  0  0  0  0  0  0  0  0
   -0.3152    2.6976    0.6707 C   0  0  0  0  0  0  0  0  0  0  0  0
    1.0949    2.0889    0.5097 C   0  0  0  0  0  0  0  0  0  0  0  0
    1.6349    1.8172   -0.9040 C   0  0  0  0  0  0  0  0  0  0  0  0
    1.0931    0.6287   -0.0640 C   0  0  0  0  0  0  0  0  0  0  0  0
    2.0450   -0.5323   -0.1612 C   0  0  0  0  0  0  0  0  0  0  0  0
    1.3052   -1.6920    0.5330 C   0  0  0  0  0  0  0  0  0  0  0  0
   -0.2041   -1.3935    0.3739 C   0  0  0  0  0  0  0  0  0  0  0  0
   -0.9945   -1.6794   -0.8868 C   0  0  0  0  0  0  0  0  0  0  0  0
   -0.1987    0.1052    0.4676 C   0  0  0  0  0  0  0  0  0  0  0  0
  1  2  1  0  0  0  0
  1 12  1  0  0  0  0
  2  3  1  0  0  0  0
  3  4  1  0  0  0  0
  3 13  1  0  0  0  0
  4  5  1  0  0  0  0
  5  6  1  0  0  0  0
  6  7  1  0  0  0  0
  6 13  1  0  0  0  0
  7  8  1  0  0  0  0
  8  9  1  0  0  0  0
  8 10  1  0  0  0  0
  9 10  1  0  0  0  0
 10 11  1  0  0  0  0
 11 12  1  0  0  0  0
 11 13  1  0  0  0  0
M  END
