
 OpenBabel03222517353D

 10 12  0  0  0  0  0  0  0  0999 V2000
    2.1065    0.3390   -0.5729 C   0  0  0  0  0  0  0  0  0  0  0  0
    1.2542   -0.2867   -1.5437 C   0  0  0  0  0  0  0  0  0  0  0  0
    0.8985   -0.7119   -0.1153 C   0  0  0  0  0  0  0  0  0  0  0  0
    1.4541   -0.9213    1.2021 C   0  0  0  0  0  0  0  0  0  0  0  0
    0.1667   -1.5374    1.0708 C   0  0  0  0  0  0  0  0  0  0  0  0
   -0.9729   -0.1438   -0.1913 C   0  0  0  0  0  0  0  0  0  0  0  0
   -2.6697   -0.3693   -1.0936 C   0  0  0  0  0  0  0  0  0  0  0  0
   -2.2355    0.8396   -0.4945 C   0  0  0  0  0  0  0  0  0  0  0  0
   -0.6881    0.7158    0.9824 C   0  0  0  0  0  0  0  0  0  0  0  0
   -1.1556   -0.8601    0.2433 C   0  0  0  0  0  0  0  0  0  0  0  0
  1  2  1  0  0  0  0
  1  4  1  0  0  0  0
  2  3  1  0  0  0  0
  3  4  1  0  0  0  0
  3  5  1  0  0  0  0
  3  9  1  0  0  0  0
  5  6  1  0  0  0  0
  6  7  1  0  0  0  0
  6 10  1  0  0  0  0
  7  8  1  0  0  0  0
  8  9  1  0  0  0  0
  9 10  1  0  0  0  0
M  END
