
 OpenBabel03222517363D

 14 16  0  0  0  0  0  0  0  0999 V2000
   -2.9861    0.8072    0.3880 C   0  0  0  0  0  0  0  0  0  0  0  0
   -1.6638    1.4293    0.8645 C   0  0  0  0  0  0  0  0  0  0  0  0
   -0.5165    0.4113    1.1144 C   0  0  0  0  0  0  0  0  0  0  0  0
   -0.2928   -0.4779   -0.1885 C   0  0  0  0  0  0  0  0  0  0  0  0
    0.3178    0.3699   -1.3118 C   0  0  0  0  0  0  0  0  0  0  0  0
    1.5861    1.0326   -0.8032 C   0  0  0  0  0  0  0  0  0  0  0  0
    2.5419   -0.0572   -0.2675 C   0  0  0  0  0  0  0  0  0  0  0  0
    1.8714   -1.3003    0.5567 C   0  0  0  0  0  0  0  0  0  0  0  0
    0.5579   -1.8251   -0.1789 C   0  0  0  0  0  0  0  0  0  0  0  0
   -0.5216   -3.2880   -0.3838 C   0  0  0  0  0  0  0  0  0  0  0  0
   -2.0326   -3.2057    0.1749 C   0  0  0  0  0  0  0  0  0  0  0  0
   -1.9291   -1.9494    0.8178 C   0  0  0  0  0  0  0  0  0  0  0  0
   -1.6647   -1.0199   -0.4363 C   0  0  0  0  0  0  0  0  0  0  0  0
   -2.7399   -0.0875   -0.7937 C   0  0  0  0  0  0  0  0  0  0  0  0
  1  2  1  0  0  0  0
  1 14  1  0  0  0  0
  2  3  1  0  0  0  0
  3  4  1  0  0  0  0
  4  5  1  0  0  0  0
  4  9  1  0  0  0  0
  4 13  1  0  0  0  0
  5  6  1  0  0  0  0
  6  7  1  0  0  0  0
  7  8  1  0  0  0  0
  8  9  1  0  0  0  0
  9 10  1  0  0  0  0
 10 11  1  0  0  0  0
 11 12  1  0  0  0  0
 12 13  1  0  0  0  0
 13 14  1  0  0  0  0
M  END
