
 OpenBabel03222517363D

 11 13  0  0  0  0  0  0  0  0999 V2000
    0.8896   -0.2032    0.0315 C   0  0  0  0  0  0  0  0  0  0  0  0
    1.0476   -0.4348   -1.3133 C   0  0  0  0  0  0  0  0  0  0  0  0
    1.6550   -1.0671   -2.4869 C   0  0  0  0  0  0  0  0  0  0  0  0
    1.1663    0.0432   -3.4081 C   0  0  0  0  0  0  0  0  0  0  0  0
   -0.4009    0.3349   -2.7891 C   0  0  0  0  0  0  0  0  0  0  0  0
   -0.2812    0.8955   -0.7918 C   0  0  0  0  0  0  0  0  0  0  0  0
   -1.0826   -1.3586   -3.1058 C   0  0  0  0  0  0  0  0  0  0  0  0
   -0.8451   -2.1903   -4.4495 C   0  0  0  0  0  0  0  0  0  0  0  0
    0.5652   -2.8063   -4.3095 C   0  0  0  0  0  0  0  0  0  0  0  0
    1.0343   -2.4253   -2.8633 C   0  0  0  0  0  0  0  0  0  0  0  0
   -0.3561   -2.5027   -2.2246 C   0  0  0  0  0  0  0  0  0  0  0  0
  1  2  1  0  0  0  0
  1  6  1  0  0  0  0
  2  3  1  0  0  0  0
  3  4  1  0  0  0  0
  3 11  1  0  0  0  0
  4  5  1  0  0  0  0
  5  6  1  0  0  0  0
  5  7  1  0  0  0  0
  7  8  1  0  0  0  0
  7 11  1  0  0  0  0
  8  9  1  0  0  0  0
  9 10  1  0  0  0  0
 10 11  1  0  0  0  0
M  END
