
 OpenBabel03222517353D

 12 13  0  0  0  0  0  0  0  0999 V2000
   -2.5823   -0.9556    0.4025 C   0  0  0  0  0  0  0  0  0  0  0  0
   -1.8643   -2.0115   -0.4256 C   0  0  0  0  0  0  0  0  0  0  0  0
   -0.5531   -2.4243    0.2198 C   0  0  0  0  0  0  0  0  0  0  0  0
    0.6403   -1.7641   -0.4939 C   0  0  0  0  0  0  0  0  0  0  0  0
    1.1160   -0.4843    0.2268 C   0  0  0  0  0  0  0  0  0  0  0  0
    2.6461   -0.2811    0.1414 C   0  0  0  0  0  0  0  0  0  0  0  0
    2.8621    1.1554    0.5944 C   0  0  0  0  0  0  0  0  0  0  0  0
    1.7048    1.8941   -0.0284 C   0  0  0  0  0  0  0  0  0  0  0  0
    0.5107    0.9809    0.2609 C   0  0  0  0  0  0  0  0  0  0  0  0
   -0.6818    1.6724   -0.4089 C   0  0  0  0  0  0  0  0  0  0  0  0
   -2.0186    1.4649    0.2902 C   0  0  0  0  0  0  0  0  0  0  0  0
   -2.7543    0.3312   -0.3862 C   0  0  0  0  0  0  0  0  0  0  0  0
  1  2  1  0  0  0  0
  1 12  1  0  0  0  0
  2  3  1  0  0  0  0
  3  4  1  0  0  0  0
  4  5  1  0  0  0  0
  5  6  1  0  0  0  0
  6  7  1  0  0  0  0
  6  8  1  0  0  0  0
  7  8  1  0  0  0  0
  8  9  1  0  0  0  0
  9 10  1  0  0  0  0
 10 11  1  0  0  0  0
 11 12  1  0  0  0  0
M  END
