
 OpenBabel03222517373D

 13 15  0  0  0  0  0  0  0  0999 V2000
    1.5101    0.1200    0.4097 C   0  0  0  0  0  0  0  0  0  0  0  0
    0.7517   -0.3638    1.6760 C   0  0  0  0  0  0  0  0  0  0  0  0
    0.7845    0.8118    2.6325 C   0  0  0  0  0  0  0  0  0  0  0  0
   -0.0318    1.9138    1.9660 C   0  0  0  0  0  0  0  0  0  0  0  0
   -1.0591    2.5998    2.7677 C   0  0  0  0  0  0  0  0  0  0  0  0
   -1.4546    3.9356    2.1679 C   0  0  0  0  0  0  0  0  0  0  0  0
   -2.7677    4.3912    2.8664 C   0  0  0  0  0  0  0  0  0  0  0  0
   -3.5229    3.7771    1.6536 C   0  0  0  0  0  0  0  0  0  0  0  0
   -2.2605    4.0549    0.8294 C   0  0  0  0  0  0  0  0  0  0  0  0
   -0.2031    4.7775    2.0559 C   0  0  0  0  0  0  0  0  0  0  0  0
    0.7192    4.1298    0.9452 C   0  0  0  0  0  0  0  0  0  0  0  0
    0.8528    2.5439    0.8729 C   0  0  0  0  0  0  0  0  0  0  0  0
    0.6826    1.2748   -0.2656 C   0  0  0  0  0  0  0  0  0  0  0  0
  1  2  1  0  0  0  0
  1 13  1  0  0  0  0
  2  3  1  0  0  0  0
  3  4  1  0  0  0  0
  4  5  1  0  0  0  0
  4 12  1  0  0  0  0
  5  6  1  0  0  0  0
  6  7  1  0  0  0  0
  6  9  1  0  0  0  0
  6 10  1  0  0  0  0
  7  8  1  0  0  0  0
  8  9  1  0  0  0  0
 10 11  1  0  0  0  0
 11 12  1  0  0  0  0
 12 13  1  0  0  0  0
M  END
