
 OpenBabel03222517363D

 11 13  0  0  0  0  0  0  0  0999 V2000
    2.0787   -0.5068   -1.0439 C   0  0  0  0  0  0  0  0  0  0  0  0
    2.2703    0.8751   -0.6138 C   0  0  0  0  0  0  0  0  0  0  0  0
    1.2692    0.9406    0.6596 C   0  0  0  0  0  0  0  0  0  0  0  0
   -0.1609    1.2615    0.2807 C   0  0  0  0  0  0  0  0  0  0  0  0
   -0.3564   -0.2307   -0.5611 C   0  0  0  0  0  0  0  0  0  0  0  0
    0.6520   -0.2866   -1.6880 C   0  0  0  0  0  0  0  0  0  0  0  0
   -1.8049   -0.4027   -0.9721 C   0  0  0  0  0  0  0  0  0  0  0  0
   -2.5418    0.0467    0.2633 C   0  0  0  0  0  0  0  0  0  0  0  0
   -1.6219   -0.2175    1.5834 C   0  0  0  0  0  0  0  0  0  0  0  0
    0.2147   -0.4620    1.3488 C   0  0  0  0  0  0  0  0  0  0  0  0
   -0.0385   -1.5061    0.2889 C   0  0  0  0  0  0  0  0  0  0  0  0
  1  2  1  0  0  0  0
  1 11  1  0  0  0  0
  2  3  1  0  0  0  0
  3  4  1  0  0  0  0
  3 10  1  0  0  0  0
  4  5  1  0  0  0  0
  5  6  1  0  0  0  0
  5  9  1  0  0  0  0
  5 10  1  0  0  0  0
  6  7  1  0  0  0  0
  7  8  1  0  0  0  0
  8  9  1  0  0  0  0
 10 11  1  0  0  0  0
M  END
