
 OpenBabel03222517383D

 14 17  0  0  0  0  0  0  0  0999 V2000
   -1.5929    0.1947   -1.2333 C   0  0  0  0  0  0  0  0  0  0  0  0
   -2.4775    1.0734   -0.4409 C   0  0  0  0  0  0  0  0  0  0  0  0
   -1.8168    1.2943    0.9284 C   0  0  0  0  0  0  0  0  0  0  0  0
   -0.3036    1.0068    1.1530 C   0  0  0  0  0  0  0  0  0  0  0  0
    0.4695    1.3848   -0.3861 C   0  0  0  0  0  0  0  0  0  0  0  0
   -0.2720    1.0660   -1.7022 C   0  0  0  0  0  0  0  0  0  0  0  0
    1.9777    0.2069   -0.8858 C   0  0  0  0  0  0  0  0  0  0  0  0
    2.4435   -1.7560   -0.4342 C   0  0  0  0  0  0  0  0  0  0  0  0
    1.8857   -1.9027    1.3276 C   0  0  0  0  0  0  0  0  0  0  0  0
    1.2133   -0.2350    1.8662 C   0  0  0  0  0  0  0  0  0  0  0  0
    2.0259   -0.1741    0.4789 C   0  0  0  0  0  0  0  0  0  0  0  0
    1.4613    0.5212    1.4758 C   0  0  0  0  0  0  0  0  0  0  0  0
    0.0341   -0.8337    0.6479 C   0  0  0  0  0  0  0  0  0  0  0  0
    0.8278   -0.6143   -0.5489 C   0  0  0  0  0  0  0  0  0  0  0  0
  1  2  1  0  0  0  0
  1 14  1  0  0  0  0
  2  3  1  0  0  0  0
  3  4  1  0  0  0  0
  4  5  1  0  0  0  0
  4 13  1  0  0  0  0
  5  6  1  0  0  0  0
  5 12  1  0  0  0  0
  6  7  1  0  0  0  0
  7  8  1  0  0  0  0
  7 11  1  0  0  0  0
  8  9  1  0  0  0  0
  9 10  1  0  0  0  0
  9 13  1  0  0  0  0
 10 11  1  0  0  0  0
 11 12  1  0  0  0  0
 13 14  1  0  0  0  0
M  END
