
 OpenBabel03222517383D

 13 18  0  0  0  0  0  0  0  0999 V2000
    1.5387   -1.2458    0.2757 C   0  0  0  0  0  0  0  0  0  0  0  0
    0.4072   -2.1111    0.1144 C   0  0  0  0  0  0  0  0  0  0  0  0
   -1.0546   -1.7558    0.0732 C   0  0  0  0  0  0  0  0  0  0  0  0
   -1.1273   -0.3253   -0.3442 C   0  0  0  0  0  0  0  0  0  0  0  0
   -0.4228    0.2113    0.9733 C   0  0  0  0  0  0  0  0  0  0  0  0
    0.9899   -0.8741    1.5047 C   0  0  0  0  0  0  0  0  0  0  0  0
    1.4519   -1.4805    2.9623 C   0  0  0  0  0  0  0  0  0  0  0  0
    0.9143   -0.2808    3.6494 C   0  0  0  0  0  0  0  0  0  0  0  0
   -0.6085   -0.3155    3.2132 C   0  0  0  0  0  0  0  0  0  0  0  0
   -0.6718   -1.9030    2.6082 C   0  0  0  0  0  0  0  0  0  0  0  0
    0.8406   -2.2251    1.8974 C   0  0  0  0  0  0  0  0  0  0  0  0
   -1.6553   -1.6093    1.5178 C   0  0  0  0  0  0  0  0  0  0  0  0
   -1.4823   -0.1446    1.9771 C   0  0  0  0  0  0  0  0  0  0  0  0
  1  2  1  0  0  0  0
  1 11  1  0  0  0  0
  2  3  1  0  0  0  0
  2  6  1  0  0  0  0
  3  4  1  0  0  0  0
  3 12  1  0  0  0  0
  4  5  1  0  0  0  0
  5  6  1  0  0  0  0
  5 13  1  0  0  0  0
  6  7  1  0  0  0  0
  7  8  1  0  0  0  0
  7 11  1  0  0  0  0
  8  9  1  0  0  0  0
  9 10  1  0  0  0  0
  9 13  1  0  0  0  0
 10 11  1  0  0  0  0
 10 12  1  0  0  0  0
 12 13  1  0  0  0  0
M  END
