
 OpenBabel03222517363D

 11 13  0  0  0  0  0  0  0  0999 V2000
   -2.6144    0.6885   -0.4293 C   0  0  0  0  0  0  0  0  0  0  0  0
   -2.5175   -0.8296   -0.6166 C   0  0  0  0  0  0  0  0  0  0  0  0
   -1.0598   -1.2641   -0.7178 C   0  0  0  0  0  0  0  0  0  0  0  0
   -0.3893   -0.9079    0.6011 C   0  0  0  0  0  0  0  0  0  0  0  0
   -0.5357    0.5627    1.0639 C   0  0  0  0  0  0  0  0  0  0  0  0
   -1.8650    1.2151    0.7930 C   0  0  0  0  0  0  0  0  0  0  0  0
    0.9366    0.8497    0.6299 C   0  0  0  0  0  0  0  0  0  0  0  0
    1.6616    1.2407   -0.6535 C   0  0  0  0  0  0  0  0  0  0  0  0
    2.8410    0.2576   -0.5668 C   0  0  0  0  0  0  0  0  0  0  0  0
    2.1410   -1.0785   -0.3762 C   0  0  0  0  0  0  0  0  0  0  0  0
    1.1474   -0.7269    0.7170 C   0  0  0  0  0  0  0  0  0  0  0  0
  1  2  1  0  0  0  0
  1  6  1  0  0  0  0
  2  3  1  0  0  0  0
  3  4  1  0  0  0  0
  4  5  1  0  0  0  0
  4 11  1  0  0  0  0
  5  6  1  0  0  0  0
  5  7  1  0  0  0  0
  7  8  1  0  0  0  0
  8  9  1  0  0  0  0
  8 11  1  0  0  0  0
  9 10  1  0  0  0  0
 10 11  1  0  0  0  0
M  END
