
 OpenBabel03222517363D

 10 12  0  0  0  0  0  0  0  0999 V2000
    2.1185    0.7423   -0.3221 C   0  0  0  0  0  0  0  0  0  0  0  0
    1.6001   -0.7081   -0.2438 C   0  0  0  0  0  0  0  0  0  0  0  0
   -0.1233   -0.8922   -0.5300 C   0  0  0  0  0  0  0  0  0  0  0  0
   -1.8572   -0.2306   -1.4564 C   0  0  0  0  0  0  0  0  0  0  0  0
   -2.1606   -0.6093   -0.1389 C   0  0  0  0  0  0  0  0  0  0  0  0
   -2.3059    0.2330    1.0694 C   0  0  0  0  0  0  0  0  0  0  0  0
   -0.8807    0.1322    1.5262 C   0  0  0  0  0  0  0  0  0  0  0  0
   -0.1073    0.3829    0.2435 C   0  0  0  0  0  0  0  0  0  0  0  0
    0.8956    1.4906    0.0758 C   0  0  0  0  0  0  0  0  0  0  0  0
   -0.7569    0.3102   -1.0527 C   0  0  0  0  0  0  0  0  0  0  0  0
  1  2  1  0  0  0  0
  1  9  1  0  0  0  0
  2  3  1  0  0  0  0
  3  4  1  0  0  0  0
  3  8  1  0  0  0  0
  4  5  1  0  0  0  0
  5  6  1  0  0  0  0
  5 10  1  0  0  0  0
  6  7  1  0  0  0  0
  7  8  1  0  0  0  0
  8  9  1  0  0  0  0
  8 10  1  0  0  0  0
M  END
