
 OpenBabel03222517353D

  8 10  0  0  0  0  0  0  0  0999 V2000
    0.9919   -0.5373    0.7731 C   0  0  0  0  0  0  0  0  0  0  0  0
    1.2616    0.7047   -0.7146 C   0  0  0  0  0  0  0  0  0  0  0  0
    1.1046    1.7318    0.3281 C   0  0  0  0  0  0  0  0  0  0  0  0
   -0.1497    0.9918    0.8891 C   0  0  0  0  0  0  0  0  0  0  0  0
   -1.1862    0.1093    0.2954 C   0  0  0  0  0  0  0  0  0  0  0  0
   -1.1077   -1.3349    0.4842 C   0  0  0  0  0  0  0  0  0  0  0  0
   -0.1860   -0.6423   -0.7169 C   0  0  0  0  0  0  0  0  0  0  0  0
    1.8393   -0.4520   -0.1443 C   0  0  0  0  0  0  0  0  0  0  0  0
  1  2  1  0  0  0  0
  1  6  1  0  0  0  0
  2  3  1  0  0  0  0
  2  8  1  0  0  0  0
  3  4  1  0  0  0  0
  4  5  1  0  0  0  0
  4  7  1  0  0  0  0
  5  6  1  0  0  0  0
  6  7  1  0  0  0  0
  7  8  1  0  0  0  0
M  END
