
 OpenBabel03222517353D

  8 12  0  0  0  0  0  0  0  0999 V2000
    0.5363   -0.4223   -0.2924 C   0  0  0  0  0  0  0  0  0  0  0  0
    0.5067    0.0754   -1.6228 C   0  0  0  0  0  0  0  0  0  0  0  0
    0.4711   -1.6182   -0.8336 C   0  0  0  0  0  0  0  0  0  0  0  0
    0.3405   -0.9542    0.9810 C   0  0  0  0  0  0  0  0  0  0  0  0
   -0.8225   -0.0554    1.0575 C   0  0  0  0  0  0  0  0  0  0  0  0
    0.1936    0.9710    1.1230 C   0  0  0  0  0  0  0  0  0  0  0  0
   -0.0075    1.3827   -0.4749 C   0  0  0  0  0  0  0  0  0  0  0  0
   -1.0577    0.3303   -0.2765 C   0  0  0  0  0  0  0  0  0  0  0  0
  1  2  1  0  0  0  0
  1  4  1  0  0  0  0
  1  6  1  0  0  0  0
  2  3  1  0  0  0  0
  2  7  1  0  0  0  0
  3  4  1  0  0  0  0
  3  8  1  0  0  0  0
  4  5  1  0  0  0  0
  5  6  1  0  0  0  0
  5  8  1  0  0  0  0
  6  7  1  0  0  0  0
  7  8  1  0  0  0  0
M  END
