
 OpenBabel03222517373D

 14 17  0  0  0  0  0  0  0  0999 V2000
   -1.5865    3.1352    0.1047 C   0  0  0  0  0  0  0  0  0  0  0  0
   -0.1281    3.3126   -0.1714 C   0  0  0  0  0  0  0  0  0  0  0  0
    0.3398    1.9405    0.3240 C   0  0  0  0  0  0  0  0  0  0  0  0
    1.3748    1.4761   -0.7007 C   0  0  0  0  0  0  0  0  0  0  0  0
    1.9675    0.2777   -0.0984 C   0  0  0  0  0  0  0  0  0  0  0  0
    0.9211   -0.8473   -0.0283 C   0  0  0  0  0  0  0  0  0  0  0  0
    1.6896   -1.7087    0.9347 C   0  0  0  0  0  0  0  0  0  0  0  0
    1.0560   -2.2896   -0.2767 C   0  0  0  0  0  0  0  0  0  0  0  0
   -0.0313   -3.2861    0.0864 C   0  0  0  0  0  0  0  0  0  0  0  0
   -1.3483   -2.6835   -0.3155 C   0  0  0  0  0  0  0  0  0  0  0  0
   -1.5281   -1.5088    0.6586 C   0  0  0  0  0  0  0  0  0  0  0  0
   -0.6553   -0.4218   -0.0250 C   0  0  0  0  0  0  0  0  0  0  0  0
   -0.9384    0.9980    0.3649 C   0  0  0  0  0  0  0  0  0  0  0  0
   -1.7600    1.8054   -0.6427 C   0  0  0  0  0  0  0  0  0  0  0  0
  1  2  1  0  0  0  0
  1 14  1  0  0  0  0
  2  3  1  0  0  0  0
  3  4  1  0  0  0  0
  3 13  1  0  0  0  0
  4  5  1  0  0  0  0
  5  6  1  0  0  0  0
  6  7  1  0  0  0  0
  6  8  1  0  0  0  0
  6 12  1  0  0  0  0
  7  8  1  0  0  0  0
  8  9  1  0  0  0  0
  9 10  1  0  0  0  0
 10 11  1  0  0  0  0
 11 12  1  0  0  0  0
 12 13  1  0  0  0  0
 13 14  1  0  0  0  0
M  END
