
 OpenBabel03222517383D

 14 16  0  0  0  0  0  0  0  0999 V2000
    0.8870    0.3865    0.3064 C   0  0  0  0  0  0  0  0  0  0  0  0
    1.1638    1.7943    0.7072 C   0  0  0  0  0  0  0  0  0  0  0  0
    1.2878    2.6040   -0.5820 C   0  0  0  0  0  0  0  0  0  0  0  0
    0.5292    2.0527   -1.8753 C   0  0  0  0  0  0  0  0  0  0  0  0
   -1.0534    1.6835   -1.8133 C   0  0  0  0  0  0  0  0  0  0  0  0
   -1.3828    1.7595   -0.3275 C   0  0  0  0  0  0  0  0  0  0  0  0
   -0.6311    0.3452    0.3712 C   0  0  0  0  0  0  0  0  0  0  0  0
   -1.5641    2.2559   -3.1909 C   0  0  0  0  0  0  0  0  0  0  0  0
   -1.0520    1.2601   -4.3515 C   0  0  0  0  0  0  0  0  0  0  0  0
   -1.3607   -0.2343   -4.0622 C   0  0  0  0  0  0  0  0  0  0  0  0
   -1.0695   -0.6376   -2.6639 C   0  0  0  0  0  0  0  0  0  0  0  0
   -1.8576    0.3425   -1.9109 C   0  0  0  0  0  0  0  0  0  0  0  0
   -2.5951   -0.8213   -4.6501 C   0  0  0  0  0  0  0  0  0  0  0  0
   -1.2481   -1.3519   -5.0108 C   0  0  0  0  0  0  0  0  0  0  0  0
  1  2  1  0  0  0  0
  1  7  1  0  0  0  0
  2  3  1  0  0  0  0
  3  4  1  0  0  0  0
  4  5  1  0  0  0  0
  5  6  1  0  0  0  0
  5  8  1  0  0  0  0
  5 12  1  0  0  0  0
  6  7  1  0  0  0  0
  8  9  1  0  0  0  0
  9 10  1  0  0  0  0
 10 11  1  0  0  0  0
 10 13  1  0  0  0  0
 10 14  1  0  0  0  0
 11 12  1  0  0  0  0
 13 14  1  0  0  0  0
M  END
