
 OpenBabel03222517373D

 10 14  0  0  0  0  0  0  0  0999 V2000
    0.8407    1.6044   -0.2659 C   0  0  0  0  0  0  0  0  0  0  0  0
   -0.2739    0.9006    0.4041 C   0  0  0  0  0  0  0  0  0  0  0  0
   -1.0511   -0.0912   -0.4024 C   0  0  0  0  0  0  0  0  0  0  0  0
   -0.1789   -1.3621   -0.4539 C   0  0  0  0  0  0  0  0  0  0  0  0
    1.1025   -1.0657    0.1069 C   0  0  0  0  0  0  0  0  0  0  0  0
    1.1151    0.3591    0.5540 C   0  0  0  0  0  0  0  0  0  0  0  0
    0.9322   -1.4489   -1.7706 C   0  0  0  0  0  0  0  0  0  0  0  0
    1.2859   -0.2947   -2.6537 C   0  0  0  0  0  0  0  0  0  0  0  0
    1.4794   -1.2018   -1.4730 C   0  0  0  0  0  0  0  0  0  0  0  0
    1.9865   -1.5714   -2.8057 C   0  0  0  0  0  0  0  0  0  0  0  0
  1  2  1  0  0  0  0
  1  6  1  0  0  0  0
  2  3  1  0  0  0  0
  2  6  1  0  0  0  0
  3  4  1  0  0  0  0
  4  5  1  0  0  0  0
  4  9  1  0  0  0  0
  5  6  1  0  0  0  0
  5  7  1  0  0  0  0
  7  8  1  0  0  0  0
  7 10  1  0  0  0  0
  8  9  1  0  0  0  0
  8 10  1  0  0  0  0
  9 10  1  0  0  0  0
M  END
