
 OpenBabel03222517363D

 12 14  0  0  0  0  0  0  0  0999 V2000
    1.5782   -1.5262   -0.8536 C   0  0  0  0  0  0  0  0  0  0  0  0
    2.4141   -0.2856   -0.4929 C   0  0  0  0  0  0  0  0  0  0  0  0
    1.4280    0.7408    0.1117 C   0  0  0  0  0  0  0  0  0  0  0  0
    1.7007    1.6257    1.1755 C   0  0  0  0  0  0  0  0  0  0  0  0
    0.3440    1.3729    2.0215 C   0  0  0  0  0  0  0  0  0  0  0  0
   -0.5489   -0.2301    1.8663 C   0  0  0  0  0  0  0  0  0  0  0  0
   -0.6481   -1.0201    0.4446 C   0  0  0  0  0  0  0  0  0  0  0  0
    0.6407   -1.9088    0.3070 C   0  0  0  0  0  0  0  0  0  0  0  0
   -1.0142    0.0836   -0.5553 C   0  0  0  0  0  0  0  0  0  0  0  0
   -1.9913    1.1310    0.1549 C   0  0  0  0  0  0  0  0  0  0  0  0
   -1.2005    2.2331   -0.5136 C   0  0  0  0  0  0  0  0  0  0  0  0
    0.1001    1.1764   -0.7229 C   0  0  0  0  0  0  0  0  0  0  0  0
  1  2  1  0  0  0  0
  1  8  1  0  0  0  0
  2  3  1  0  0  0  0
  3  4  1  0  0  0  0
  3 12  1  0  0  0  0
  4  5  1  0  0  0  0
  5  6  1  0  0  0  0
  6  7  1  0  0  0  0
  7  8  1  0  0  0  0
  7  9  1  0  0  0  0
  9 10  1  0  0  0  0
  9 12  1  0  0  0  0
 10 11  1  0  0  0  0
 11 12  1  0  0  0  0
M  END
