
 OpenBabel03222517353D

  9 11  0  0  0  0  0  0  0  0999 V2000
   -1.8615    0.0031   -0.7318 C   0  0  0  0  0  0  0  0  0  0  0  0
   -1.2071   -1.2988   -0.2636 C   0  0  0  0  0  0  0  0  0  0  0  0
   -0.0091   -1.1555    0.6812 C   0  0  0  0  0  0  0  0  0  0  0  0
   -0.1960    0.0142    1.6303 C   0  0  0  0  0  0  0  0  0  0  0  0
   -0.0118    1.1624    0.6486 C   0  0  0  0  0  0  0  0  0  0  0  0
   -1.1803    1.3062   -0.3193 C   0  0  0  0  0  0  0  0  0  0  0  0
    1.2961    0.8121    0.0059 C   0  0  0  0  0  0  0  0  0  0  0  0
    1.8820   -0.0151   -1.0573 C   0  0  0  0  0  0  0  0  0  0  0  0
    1.3272   -0.8298    0.0471 C   0  0  0  0  0  0  0  0  0  0  0  0
  1  2  1  0  0  0  0
  1  6  1  0  0  0  0
  2  3  1  0  0  0  0
  3  4  1  0  0  0  0
  3  9  1  0  0  0  0
  4  5  1  0  0  0  0
  5  6  1  0  0  0  0
  5  7  1  0  0  0  0
  7  8  1  0  0  0  0
  7  9  1  0  0  0  0
  8  9  1  0  0  0  0
M  END
