
 OpenBabel03222517363D

 10 14  0  0  0  0  0  0  0  0999 V2000
   -1.6769    0.0449    0.3957 C   0  0  0  0  0  0  0  0  0  0  0  0
   -0.5286   -0.4763    1.2581 C   0  0  0  0  0  0  0  0  0  0  0  0
    0.4331    0.5689    1.8785 C   0  0  0  0  0  0  0  0  0  0  0  0
    1.3527    0.9221    0.7369 C   0  0  0  0  0  0  0  0  0  0  0  0
    0.6051    1.5303   -0.4749 C   0  0  0  0  0  0  0  0  0  0  0  0
   -0.8892    0.9506   -0.6053 C   0  0  0  0  0  0  0  0  0  0  0  0
   -0.1458   -0.3163   -1.1925 C   0  0  0  0  0  0  0  0  0  0  0  0
    0.3135   -1.0169    0.1243 C   0  0  0  0  0  0  0  0  0  0  0  0
    1.6790   -0.3328   -0.0766 C   0  0  0  0  0  0  0  0  0  0  0  0
    1.1622    0.4069   -1.3417 C   0  0  0  0  0  0  0  0  0  0  0  0
  1  2  1  0  0  0  0
  1  6  1  0  0  0  0
  2  3  1  0  0  0  0
  2  8  1  0  0  0  0
  3  4  1  0  0  0  0
  4  5  1  0  0  0  0
  4  9  1  0  0  0  0
  5  6  1  0  0  0  0
  5 10  1  0  0  0  0
  6  7  1  0  0  0  0
  7  8  1  0  0  0  0
  7 10  1  0  0  0  0
  8  9  1  0  0  0  0
  9 10  1  0  0  0  0
M  END
