
 OpenBabel03222517373D

 12 14  0  0  0  0  0  0  0  0999 V2000
    2.5044   -0.3528   -0.9002 C   0  0  0  0  0  0  0  0  0  0  0  0
    2.4581    1.0977   -1.3605 C   0  0  0  0  0  0  0  0  0  0  0  0
    1.2568    1.7928   -0.6753 C   0  0  0  0  0  0  0  0  0  0  0  0
   -0.0235    0.9283   -0.3925 C   0  0  0  0  0  0  0  0  0  0  0  0
   -1.2615    0.8373   -1.3226 C   0  0  0  0  0  0  0  0  0  0  0  0
   -2.0424   -0.0718   -0.4808 C   0  0  0  0  0  0  0  0  0  0  0  0
   -3.3221   -0.2219    0.3237 C   0  0  0  0  0  0  0  0  0  0  0  0
   -2.2087   -1.3152    1.1372 C   0  0  0  0  0  0  0  0  0  0  0  0
   -1.5385    0.0016    1.3309 C   0  0  0  0  0  0  0  0  0  0  0  0
   -0.8048   -1.9277    0.4083 C   0  0  0  0  0  0  0  0  0  0  0  0
    0.3400   -0.7256   -0.0751 C   0  0  0  0  0  0  0  0  0  0  0  0
    1.1595   -0.9532   -1.3198 C   0  0  0  0  0  0  0  0  0  0  0  0
  1  2  1  0  0  0  0
  1 11  1  0  0  0  0
  2  3  1  0  0  0  0
  3  4  1  0  0  0  0
  4  5  1  0  0  0  0
  4  9  1  0  0  0  0
  5  6  1  0  0  0  0
  6  7  1  0  0  0  0
  6 12  1  0  0  0  0
  7  8  1  0  0  0  0
  8  9  1  0  0  0  0
  9 10  1  0  0  0  0
  9 12  1  0  0  0  0
 10 11  1  0  0  0  0
M  END
