
 OpenBabel03222517373D

 10 14  0  0  0  0  0  0  0  0999 V2000
   -1.8920   -1.0735   -0.9289 C   0  0  0  0  0  0  0  0  0  0  0  0
   -0.9059   -0.1397   -1.5787 C   0  0  0  0  0  0  0  0  0  0  0  0
   -0.5766    0.7724   -0.3158 C   0  0  0  0  0  0  0  0  0  0  0  0
    0.5365    1.8329   -0.2014 C   0  0  0  0  0  0  0  0  0  0  0  0
    1.4062    0.6226   -0.5305 C   0  0  0  0  0  0  0  0  0  0  0  0
    1.5388   -0.0210    0.7947 C   0  0  0  0  0  0  0  0  0  0  0  0
    0.6134   -1.4670   -0.0767 C   0  0  0  0  0  0  0  0  0  0  0  0
   -1.1716   -1.0904    0.5393 C   0  0  0  0  0  0  0  0  0  0  0  0
   -0.3938    0.5565    1.1562 C   0  0  0  0  0  0  0  0  0  0  0  0
    0.3476   -0.1558    0.2901 C   0  0  0  0  0  0  0  0  0  0  0  0
  1  2  1  0  0  0  0
  1  8  1  0  0  0  0
  2  3  1  0  0  0  0
  3  4  1  0  0  0  0
  3  9  1  0  0  0  0
  3 10  1  0  0  0  0
  4  5  1  0  0  0  0
  5  6  1  0  0  0  0
  5 10  1  0  0  0  0
  6  7  1  0  0  0  0
  6  9  1  0  0  0  0
  7  8  1  0  0  0  0
  7 10  1  0  0  0  0
  8  9  1  0  0  0  0
M  END
