
 OpenBabel03222517373D

 12 15  0  0  0  0  0  0  0  0999 V2000
   -2.8635    0.8021   -0.3357 C   0  0  0  0  0  0  0  0  0  0  0  0
   -2.5708   -0.5862   -0.2851 C   0  0  0  0  0  0  0  0  0  0  0  0
   -1.4155   -0.2978    0.7432 C   0  0  0  0  0  0  0  0  0  0  0  0
   -1.4732    1.6807    0.7745 C   0  0  0  0  0  0  0  0  0  0  0  0
   -1.2917    1.4340   -0.6862 C   0  0  0  0  0  0  0  0  0  0  0  0
    0.1641    0.8978   -0.0605 C   0  0  0  0  0  0  0  0  0  0  0  0
    1.5598    1.3659    0.3017 C   0  0  0  0  0  0  0  0  0  0  0  0
    2.5605    0.9377   -0.7381 C   0  0  0  0  0  0  0  0  0  0  0  0
    2.5964   -0.5938   -0.5887 C   0  0  0  0  0  0  0  0  0  0  0  0
    1.5179   -0.8784    0.4800 C   0  0  0  0  0  0  0  0  0  0  0  0
    1.8638    0.2862    1.4440 C   0  0  0  0  0  0  0  0  0  0  0  0
    0.0839   -0.5223   -0.1231 C   0  0  0  0  0  0  0  0  0  0  0  0
  1  2  1  0  0  0  0
  1  5  1  0  0  0  0
  2  3  1  0  0  0  0
  3  4  1  0  0  0  0
  3 12  1  0  0  0  0
  4  5  1  0  0  0  0
  5  6  1  0  0  0  0
  6  7  1  0  0  0  0
  6 12  1  0  0  0  0
  7  8  1  0  0  0  0
  8  9  1  0  0  0  0
  8 11  1  0  0  0  0
  9 10  1  0  0  0  0
 10 11  1  0  0  0  0
 10 12  1  0  0  0  0
M  END
