
 OpenBabel03222517353D

  9 10  0  0  0  0  0  0  0  0999 V2000
   -1.6108   -0.1382    0.8081 C   0  0  0  0  0  0  0  0  0  0  0  0
   -1.5778   -1.3633   -0.1518 C   0  0  0  0  0  0  0  0  0  0  0  0
   -0.2555   -1.6037   -0.9582 C   0  0  0  0  0  0  0  0  0  0  0  0
    0.9253   -1.2777   -0.1808 C   0  0  0  0  0  0  0  0  0  0  0  0
    1.9896   -0.0788   -0.6518 C   0  0  0  0  0  0  0  0  0  0  0  0
    1.5820    0.4157    0.7236 C   0  0  0  0  0  0  0  0  0  0  0  0
    0.3643    1.4417    0.2402 C   0  0  0  0  0  0  0  0  0  0  0  0
   -1.1532    1.1128    0.1090 C   0  0  0  0  0  0  0  0  0  0  0  0
    2.0352   -1.4415    0.8413 C   0  0  0  0  0  0  0  0  0  0  0  0
  1  2  1  0  0  0  0
  1  8  1  0  0  0  0
  2  3  1  0  0  0  0
  3  4  1  0  0  0  0
  4  5  1  0  0  0  0
  4  9  1  0  0  0  0
  5  6  1  0  0  0  0
  6  7  1  0  0  0  0
  7  8  1  0  0  0  0
  7  9  1  0  0  0  0
M  END
