
 OpenBabel03222517383D

 14 17  0  0  0  0  0  0  0  0999 V2000
    0.5303   -0.4840    0.5673 C   0  0  0  0  0  0  0  0  0  0  0  0
   -0.0189   -1.3219   -0.5783 C   0  0  0  0  0  0  0  0  0  0  0  0
    1.1987   -1.8237   -1.4693 C   0  0  0  0  0  0  0  0  0  0  0  0
    2.6371   -1.5563   -1.0167 C   0  0  0  0  0  0  0  0  0  0  0  0
    2.8576   -0.0519   -1.4168 C   0  0  0  0  0  0  0  0  0  0  0  0
    3.1550    0.0955   -2.9448 C   0  0  0  0  0  0  0  0  0  0  0  0
    1.8106   -0.1959   -3.6941 C   0  0  0  0  0  0  0  0  0  0  0  0
    2.0865   -0.6394   -5.1342 C   0  0  0  0  0  0  0  0  0  0  0  0
    1.2017    0.2174   -6.0807 C   0  0  0  0  0  0  0  0  0  0  0  0
    0.7646    1.4241   -5.2931 C   0  0  0  0  0  0  0  0  0  0  0  0
    0.5987    0.8254   -3.9583 C   0  0  0  0  0  0  0  0  0  0  0  0
    1.0325   -0.7992   -2.5107 C   0  0  0  0  0  0  0  0  0  0  0  0
    1.4546    0.5377   -1.4754 C   0  0  0  0  0  0  0  0  0  0  0  0
    0.7482    0.8278   -0.1116 C   0  0  0  0  0  0  0  0  0  0  0  0
  1  2  1  0  0  0  0
  1 14  1  0  0  0  0
  2  3  1  0  0  0  0
  3  4  1  0  0  0  0
  3 12  1  0  0  0  0
  4  5  1  0  0  0  0
  5  6  1  0  0  0  0
  5 13  1  0  0  0  0
  6  7  1  0  0  0  0
  7  8  1  0  0  0  0
  7 11  1  0  0  0  0
  7 12  1  0  0  0  0
  8  9  1  0  0  0  0
  9 10  1  0  0  0  0
 10 11  1  0  0  0  0
 12 13  1  0  0  0  0
 13 14  1  0  0  0  0
M  END
