
 OpenBabel03222517353D

 11 12  0  0  0  0  0  0  0  0999 V2000
    0.0453    2.5453    0.4432 C   0  0  0  0  0  0  0  0  0  0  0  0
   -1.3866    2.3084   -0.0349 C   0  0  0  0  0  0  0  0  0  0  0  0
   -1.9043    0.9739    0.4839 C   0  0  0  0  0  0  0  0  0  0  0  0
   -1.7077   -0.0998   -0.5483 C   0  0  0  0  0  0  0  0  0  0  0  0
   -0.8743   -1.2198   -0.0532 C   0  0  0  0  0  0  0  0  0  0  0  0
   -0.5695   -2.4766    0.8383 C   0  0  0  0  0  0  0  0  0  0  0  0
    0.5460   -2.6480   -0.4507 C   0  0  0  0  0  0  0  0  0  0  0  0
    0.8870   -1.2333    0.0093 C   0  0  0  0  0  0  0  0  0  0  0  0
    2.0308   -0.3888   -0.5263 C   0  0  0  0  0  0  0  0  0  0  0  0
    2.0232    0.9469    0.2331 C   0  0  0  0  0  0  0  0  0  0  0  0
    1.0699    1.8950   -0.4817 C   0  0  0  0  0  0  0  0  0  0  0  0
  1  2  1  0  0  0  0
  1 11  1  0  0  0  0
  2  3  1  0  0  0  0
  3  4  1  0  0  0  0
  4  5  1  0  0  0  0
  5  6  1  0  0  0  0
  5  8  1  0  0  0  0
  6  7  1  0  0  0  0
  7  8  1  0  0  0  0
  8  9  1  0  0  0  0
  9 10  1  0  0  0  0
 10 11  1  0  0  0  0
M  END
