
 OpenBabel03222517353D

  7 10  0  0  0  0  0  0  0  0999 V2000
   -0.7974   -0.6266    1.6070 C   0  0  0  0  0  0  0  0  0  0  0  0
   -0.8646   -0.4458    0.1592 C   0  0  0  0  0  0  0  0  0  0  0  0
    0.3751   -1.0853    0.6520 C   0  0  0  0  0  0  0  0  0  0  0  0
    1.3108   -0.1861   -0.2967 C   0  0  0  0  0  0  0  0  0  0  0  0
    1.0781    1.3290   -0.1775 C   0  0  0  0  0  0  0  0  0  0  0  0
   -0.3338    0.8692   -0.4164 C   0  0  0  0  0  0  0  0  0  0  0  0
    0.7359    0.6415   -1.4388 C   0  0  0  0  0  0  0  0  0  0  0  0
  1  2  1  0  0  0  0
  1  6  1  0  0  0  0
  2  3  1  0  0  0  0
  2  7  1  0  0  0  0
  3  4  1  0  0  0  0
  3  7  1  0  0  0  0
  4  5  1  0  0  0  0
  4  6  1  0  0  0  0
  5  6  1  0  0  0  0
  6  7  1  0  0  0  0
M  END
