
 OpenBabel03222517373D

 12 15  0  0  0  0  0  0  0  0999 V2000
   -2.4835   -0.8309   -0.5944 C   0  0  0  0  0  0  0  0  0  0  0  0
   -2.5606    0.6771   -0.3686 C   0  0  0  0  0  0  0  0  0  0  0  0
   -1.7126    1.1647    0.8137 C   0  0  0  0  0  0  0  0  0  0  0  0
   -0.2895    0.5775    0.9084 C   0  0  0  0  0  0  0  0  0  0  0  0
    0.7843    1.3592    0.1294 C   0  0  0  0  0  0  0  0  0  0  0  0
    2.0677    0.6540   -0.1928 C   0  0  0  0  0  0  0  0  0  0  0  0
    3.1238    0.9267    0.9939 C   0  0  0  0  0  0  0  0  0  0  0  0
    3.2262   -0.2362    0.0779 C   0  0  0  0  0  0  0  0  0  0  0  0
    1.9355   -0.9079   -0.3208 C   0  0  0  0  0  0  0  0  0  0  0  0
    1.0764   -1.5113    0.7463 C   0  0  0  0  0  0  0  0  0  0  0  0
   -0.3296   -0.9372    0.6421 C   0  0  0  0  0  0  0  0  0  0  0  0
   -1.0363   -1.2973   -0.6699 C   0  0  0  0  0  0  0  0  0  0  0  0
  1  2  1  0  0  0  0
  1 12  1  0  0  0  0
  2  3  1  0  0  0  0
  3  4  1  0  0  0  0
  4  5  1  0  0  0  0
  4 11  1  0  0  0  0
  5  6  1  0  0  0  0
  6  7  1  0  0  0  0
  6  8  1  0  0  0  0
  6  9  1  0  0  0  0
  7  8  1  0  0  0  0
  8  9  1  0  0  0  0
  9 10  1  0  0  0  0
 10 11  1  0  0  0  0
 11 12  1  0  0  0  0
M  END
