
 OpenBabel03222517363D

 10 13  0  0  0  0  0  0  0  0999 V2000
    0.4212    0.7105   -1.6957 C   0  0  0  0  0  0  0  0  0  0  0  0
    0.5335   -1.1468   -1.6090 C   0  0  0  0  0  0  0  0  0  0  0  0
    0.1498   -1.6529    0.3465 C   0  0  0  0  0  0  0  0  0  0  0  0
    1.2286   -0.4729    1.4171 C   0  0  0  0  0  0  0  0  0  0  0  0
    1.4402    1.0529    0.9195 C   0  0  0  0  0  0  0  0  0  0  0  0
    0.3136    1.4585   -0.1070 C   0  0  0  0  0  0  0  0  0  0  0  0
   -0.8951    0.7878    0.5592 C   0  0  0  0  0  0  0  0  0  0  0  0
   -0.3844   -0.3853   -0.0058 C   0  0  0  0  0  0  0  0  0  0  0  0
    1.5442   -0.9920    0.1896 C   0  0  0  0  0  0  0  0  0  0  0  0
   -1.0263   -0.9722    0.9535 C   0  0  0  0  0  0  0  0  0  0  0  0
  1  2  1  0  0  0  0
  1  6  1  0  0  0  0
  2  3  1  0  0  0  0
  3  4  1  0  0  0  0
  3 10  1  0  0  0  0
  4  5  1  0  0  0  0
  4  9  1  0  0  0  0
  5  6  1  0  0  0  0
  6  7  1  0  0  0  0
  7  8  1  0  0  0  0
  7 10  1  0  0  0  0
  8  9  1  0  0  0  0
  8 10  1  0  0  0  0
M  END
