
 OpenBabel03222517383D

 13 16  0  0  0  0  0  0  0  0999 V2000
   -2.3337    0.6913    0.2848 C   0  0  0  0  0  0  0  0  0  0  0  0
   -2.3178   -0.7369   -0.2779 C   0  0  0  0  0  0  0  0  0  0  0  0
   -1.0725   -1.5048    0.2023 C   0  0  0  0  0  0  0  0  0  0  0  0
    0.1355   -0.7236   -0.2973 C   0  0  0  0  0  0  0  0  0  0  0  0
    0.1016    0.7220    0.2116 C   0  0  0  0  0  0  0  0  0  0  0  0
   -1.1300    1.4902   -0.2377 C   0  0  0  0  0  0  0  0  0  0  0  0
    1.4792    1.2161   -0.0528 C   0  0  0  0  0  0  0  0  0  0  0  0
    1.9647    2.5054   -0.6642 C   0  0  0  0  0  0  0  0  0  0  0  0
    1.7928    2.4094    0.8421 C   0  0  0  0  0  0  0  0  0  0  0  0
    2.4512    0.0421   -0.0713 C   0  0  0  0  0  0  0  0  0  0  0  0
    1.5485   -1.1573    0.0024 C   0  0  0  0  0  0  0  0  0  0  0  0
    1.9125   -2.4951   -0.5716 C   0  0  0  0  0  0  0  0  0  0  0  0
    2.0041   -2.2735    0.9287 C   0  0  0  0  0  0  0  0  0  0  0  0
  1  2  1  0  0  0  0
  1  6  1  0  0  0  0
  2  3  1  0  0  0  0
  3  4  1  0  0  0  0
  4  5  1  0  0  0  0
  4 11  1  0  0  0  0
  5  6  1  0  0  0  0
  5  7  1  0  0  0  0
  7  8  1  0  0  0  0
  7  9  1  0  0  0  0
  7 10  1  0  0  0  0
  8  9  1  0  0  0  0
 10 11  1  0  0  0  0
 11 12  1  0  0  0  0
 11 13  1  0  0  0  0
 12 13  1  0  0  0  0
M  END
