
 OpenBabel03222517363D

 11 13  0  0  0  0  0  0  0  0999 V2000
   -1.6748    0.2193   -1.4835 C   0  0  0  0  0  0  0  0  0  0  0  0
   -1.5396   -1.3830   -0.9230 C   0  0  0  0  0  0  0  0  0  0  0  0
   -0.4879   -1.4771    0.1010 C   0  0  0  0  0  0  0  0  0  0  0  0
    1.3548   -1.5413    0.1331 C   0  0  0  0  0  0  0  0  0  0  0  0
    1.9581    0.2419    0.3235 C   0  0  0  0  0  0  0  0  0  0  0  0
    0.8103   -0.0684   -0.4145 C   0  0  0  0  0  0  0  0  0  0  0  0
   -0.0995   -0.2723    1.3804 C   0  0  0  0  0  0  0  0  0  0  0  0
    0.2903    1.0291    1.8102 C   0  0  0  0  0  0  0  0  0  0  0  0
    1.0849    1.7584    0.9418 C   0  0  0  0  0  0  0  0  0  0  0  0
   -0.7959    0.4801    0.3651 C   0  0  0  0  0  0  0  0  0  0  0  0
   -0.6054    1.4487   -1.1677 C   0  0  0  0  0  0  0  0  0  0  0  0
  1  2  1  0  0  0  0
  1 10  1  0  0  0  0
  2  3  1  0  0  0  0
  3  4  1  0  0  0  0
  3  8  1  0  0  0  0
  4  5  1  0  0  0  0
  5  6  1  0  0  0  0
  5 11  1  0  0  0  0
  6  7  1  0  0  0  0
  7  8  1  0  0  0  0
  8  9  1  0  0  0  0
  9 10  1  0  0  0  0
  9 11  1  0  0  0  0
M  END
