
 OpenBabel03222517363D

 12 14  0  0  0  0  0  0  0  0999 V2000
   -2.2746   -0.8939    0.3365 C   0  0  0  0  0  0  0  0  0  0  0  0
   -1.6164   -2.0517   -0.3940 C   0  0  0  0  0  0  0  0  0  0  0  0
   -0.4181   -2.5214    0.3957 C   0  0  0  0  0  0  0  0  0  0  0  0
    0.8459   -2.1516   -0.2987 C   0  0  0  0  0  0  0  0  0  0  0  0
    1.9853   -1.7828    0.5627 C   0  0  0  0  0  0  0  0  0  0  0  0
    1.3790   -0.7396   -0.3709 C   0  0  0  0  0  0  0  0  0  0  0  0
    0.8000    0.5183    0.3129 C   0  0  0  0  0  0  0  0  0  0  0  0
    1.6560    1.7559   -0.0375 C   0  0  0  0  0  0  0  0  0  0  0  0
    0.7653    2.9801   -0.0557 C   0  0  0  0  0  0  0  0  0  0  0  0
   -0.5353    2.4209   -0.5572 C   0  0  0  0  0  0  0  0  0  0  0  0
   -0.6649    1.0834    0.1994 C   0  0  0  0  0  0  0  0  0  0  0  0
   -1.9037    0.3900   -0.3695 C   0  0  0  0  0  0  0  0  0  0  0  0
  1  2  1  0  0  0  0
  1 12  1  0  0  0  0
  2  3  1  0  0  0  0
  3  4  1  0  0  0  0
  4  5  1  0  0  0  0
  4  6  1  0  0  0  0
  5  6  1  0  0  0  0
  6  7  1  0  0  0  0
  7  8  1  0  0  0  0
  8  9  1  0  0  0  0
  9 10  1  0  0  0  0
  9 11  1  0  0  0  0
 10 11  1  0  0  0  0
 11 12  1  0  0  0  0
M  END
