
 OpenBabel03222517363D

 12 14  0  0  0  0  0  0  0  0999 V2000
   -1.6569   -0.0816   -0.1089 C   0  0  0  0  0  0  0  0  0  0  0  0
   -2.4815   -1.0376   -0.8236 C   0  0  0  0  0  0  0  0  0  0  0  0
   -1.4642   -1.8972   -0.3273 C   0  0  0  0  0  0  0  0  0  0  0  0
    0.0321   -0.4767   -0.7644 C   0  0  0  0  0  0  0  0  0  0  0  0
   -0.3042   -2.1344    0.0114 C   0  0  0  0  0  0  0  0  0  0  0  0
   -0.9537   -0.9535    1.6068 C   0  0  0  0  0  0  0  0  0  0  0  0
   -0.6533    0.9999    1.2664 C   0  0  0  0  0  0  0  0  0  0  0  0
    0.0760    1.3050   -0.5639 C   0  0  0  0  0  0  0  0  0  0  0  0
    0.7142    2.4886   -0.0873 C   0  0  0  0  0  0  0  0  0  0  0  0
    1.2659    1.0774    0.0331 C   0  0  0  0  0  0  0  0  0  0  0  0
    1.2215   -0.0899   -1.1652 C   0  0  0  0  0  0  0  0  0  0  0  0
    0.4870   -0.5501    0.1774 C   0  0  0  0  0  0  0  0  0  0  0  0
  1  2  1  0  0  0  0
  1  9  1  0  0  0  0
  2  3  1  0  0  0  0
  3  4  1  0  0  0  0
  4  5  1  0  0  0  0
  4  8  1  0  0  0  0
  4 12  1  0  0  0  0
  5  6  1  0  0  0  0
  6  7  1  0  0  0  0
  7  8  1  0  0  0  0
  8  9  1  0  0  0  0
  8 10  1  0  0  0  0
 10 11  1  0  0  0  0
 11 12  1  0  0  0  0
M  END
