
 OpenBabel03222517353D

 10 13  0  0  0  0  0  0  0  0999 V2000
   -2.2606    0.7990   -0.3017 C   0  0  0  0  0  0  0  0  0  0  0  0
   -1.0362    1.2913   -0.9192 C   0  0  0  0  0  0  0  0  0  0  0  0
   -1.4467   -0.4026   -1.4738 C   0  0  0  0  0  0  0  0  0  0  0  0
   -0.6153   -1.6512   -0.5734 C   0  0  0  0  0  0  0  0  0  0  0  0
   -0.8115   -0.6296    0.2693 C   0  0  0  0  0  0  0  0  0  0  0  0
    0.8043    0.1534   -0.6985 C   0  0  0  0  0  0  0  0  0  0  0  0
    0.2129    1.1161   -0.1137 C   0  0  0  0  0  0  0  0  0  0  0  0
    0.5465   -0.7936    0.1811 C   0  0  0  0  0  0  0  0  0  0  0  0
    1.0139   -1.1654    1.5118 C   0  0  0  0  0  0  0  0  0  0  0  0
    2.0253   -1.4836    0.4505 C   0  0  0  0  0  0  0  0  0  0  0  0
  1  2  1  0  0  0  0
  1  5  1  0  0  0  0
  2  3  1  0  0  0  0
  2  8  1  0  0  0  0
  3  4  1  0  0  0  0
  4  5  1  0  0  0  0
  4  9  1  0  0  0  0
  5  6  1  0  0  0  0
  6  7  1  0  0  0  0
  6 10  1  0  0  0  0
  7  8  1  0  0  0  0
  8  9  1  0  0  0  0
  9 10  1  0  0  0  0
M  END
