
 OpenBabel03222517353D

  7  9  0  0  0  0  0  0  0  0999 V2000
   -1.6192    0.7356    0.1819 C   0  0  0  0  0  0  0  0  0  0  0  0
   -1.6304   -0.7431   -0.1541 C   0  0  0  0  0  0  0  0  0  0  0  0
   -0.2519   -1.1482    0.2411 C   0  0  0  0  0  0  0  0  0  0  0  0
    0.9310   -1.1899   -0.7503 C   0  0  0  0  0  0  0  0  0  0  0  0
    0.7391   -0.0481    0.1413 C   0  0  0  0  0  0  0  0  0  0  0  0
    0.9205    1.2664    0.7196 C   0  0  0  0  0  0  0  0  0  0  0  0
   -0.2293    1.0832   -0.2137 C   0  0  0  0  0  0  0  0  0  0  0  0
  1  2  1  0  0  0  0
  1  7  1  0  0  0  0
  2  3  1  0  0  0  0
  3  4  1  0  0  0  0
  3  5  1  0  0  0  0
  4  5  1  0  0  0  0
  5  6  1  0  0  0  0
  5  7  1  0  0  0  0
  6  7  1  0  0  0  0
M  END
