
 OpenBabel03222517373D

 13 16  0  0  0  0  0  0  0  0999 V2000
   -3.1036   -1.1750    0.2418 C   0  0  0  0  0  0  0  0  0  0  0  0
   -2.0667   -2.0915   -0.3749 C   0  0  0  0  0  0  0  0  0  0  0  0
   -0.8899   -1.5898    0.4232 C   0  0  0  0  0  0  0  0  0  0  0  0
    0.4357   -1.8394   -0.2992 C   0  0  0  0  0  0  0  0  0  0  0  0
    1.1148   -0.6107    0.2145 C   0  0  0  0  0  0  0  0  0  0  0  0
    2.3541   -0.0751   -0.4455 C   0  0  0  0  0  0  0  0  0  0  0  0
    2.9041    1.1239    0.3377 C   0  0  0  0  0  0  0  0  0  0  0  0
    2.2512    2.2818   -0.4073 C   0  0  0  0  0  0  0  0  0  0  0  0
    0.8276    1.6986   -0.6142 C   0  0  0  0  0  0  0  0  0  0  0  0
    1.6989    0.6301   -1.6360 C   0  0  0  0  0  0  0  0  0  0  0  0
    0.0819    0.4776   -0.1445 C   0  0  0  0  0  0  0  0  0  0  0  0
   -1.1855    0.0156    0.5450 C   0  0  0  0  0  0  0  0  0  0  0  0
   -2.5245    0.1505   -0.2255 C   0  0  0  0  0  0  0  0  0  0  0  0
  1  2  1  0  0  0  0
  1 13  1  0  0  0  0
  2  3  1  0  0  0  0
  3  4  1  0  0  0  0
  3 12  1  0  0  0  0
  4  5  1  0  0  0  0
  5  6  1  0  0  0  0
  5 11  1  0  0  0  0
  6  7  1  0  0  0  0
  6 10  1  0  0  0  0
  7  8  1  0  0  0  0
  8  9  1  0  0  0  0
  9 10  1  0  0  0  0
  9 11  1  0  0  0  0
 11 12  1  0  0  0  0
 12 13  1  0  0  0  0
M  END
