
 OpenBabel03222517353D

  8 10  0  0  0  0  0  0  0  0999 V2000
   -1.4207    0.6400    0.0624 C   0  0  0  0  0  0  0  0  0  0  0  0
   -1.5609   -0.8658    0.0146 C   0  0  0  0  0  0  0  0  0  0  0  0
   -0.2829   -1.4778    0.6379 C   0  0  0  0  0  0  0  0  0  0  0  0
    0.9790   -1.1583   -0.1593 C   0  0  0  0  0  0  0  0  0  0  0  0
    1.9732    0.0199    0.1803 C   0  0  0  0  0  0  0  0  0  0  0  0
    0.9162    0.0847   -0.9302 C   0  0  0  0  0  0  0  0  0  0  0  0
   -0.2340    1.0621   -0.8089 C   0  0  0  0  0  0  0  0  0  0  0  0
    0.8448   -1.3198   -1.6640 C   0  0  0  0  0  0  0  0  0  0  0  0
  1  2  1  0  0  0  0
  1  7  1  0  0  0  0
  2  3  1  0  0  0  0
  3  4  1  0  0  0  0
  4  5  1  0  0  0  0
  4  6  1  0  0  0  0
  4  8  1  0  0  0  0
  5  6  1  0  0  0  0
  6  7  1  0  0  0  0
  6  8  1  0  0  0  0
M  END
