
 OpenBabel03222517383D

 13 16  0  0  0  0  0  0  0  0999 V2000
   -2.7091   -0.8525   -0.4512 C   0  0  0  0  0  0  0  0  0  0  0  0
   -2.7003    0.6775   -0.3394 C   0  0  0  0  0  0  0  0  0  0  0  0
   -1.9102    1.1960    0.8560 C   0  0  0  0  0  0  0  0  0  0  0  0
   -0.5273    0.5969    0.9659 C   0  0  0  0  0  0  0  0  0  0  0  0
   -0.4353   -0.8856    0.5574 C   0  0  0  0  0  0  0  0  0  0  0  0
   -1.2934   -1.3564   -0.6157 C   0  0  0  0  0  0  0  0  0  0  0  0
    1.0898   -0.5768    0.5160 C   0  0  0  0  0  0  0  0  0  0  0  0
    2.1811   -0.9948   -0.4382 C   0  0  0  0  0  0  0  0  0  0  0  0
    1.6666   -0.8271   -1.8704 C   0  0  0  0  0  0  0  0  0  0  0  0
    1.8999    0.6421   -2.1849 C   0  0  0  0  0  0  0  0  0  0  0  0
    2.0664    1.1808   -0.7644 C   0  0  0  0  0  0  0  0  0  0  0  0
    3.0896    0.2007   -0.1992 C   0  0  0  0  0  0  0  0  0  0  0  0
    0.7086    0.9767    0.0246 C   0  0  0  0  0  0  0  0  0  0  0  0
  1  2  1  0  0  0  0
  1  6  1  0  0  0  0
  2  3  1  0  0  0  0
  3  4  1  0  0  0  0
  4  5  1  0  0  0  0
  4 13  1  0  0  0  0
  5  6  1  0  0  0  0
  5  7  1  0  0  0  0
  7  8  1  0  0  0  0
  7 13  1  0  0  0  0
  8  9  1  0  0  0  0
  8 12  1  0  0  0  0
  9 10  1  0  0  0  0
 10 11  1  0  0  0  0
 11 12  1  0  0  0  0
 11 13  1  0  0  0  0
M  END
