
 OpenBabel03222517383D

 15 18  0  0  0  0  0  0  0  0999 V2000
    3.0201   -0.6277    0.2822 C   0  0  0  0  0  0  0  0  0  0  0  0
    3.4832    0.6542   -0.3466 C   0  0  0  0  0  0  0  0  0  0  0  0
    2.6139    1.7392    0.2371 C   0  0  0  0  0  0  0  0  0  0  0  0
    1.2271    1.3984   -0.2553 C   0  0  0  0  0  0  0  0  0  0  0  0
    0.8503   -0.3341   -0.0933 C   0  0  0  0  0  0  0  0  0  0  0  0
    1.9620   -1.1874   -0.6928 C   0  0  0  0  0  0  0  0  0  0  0  0
   -0.5173   -0.6686   -0.0340 C   0  0  0  0  0  0  0  0  0  0  0  0
   -1.5997   -1.5412   -0.6957 C   0  0  0  0  0  0  0  0  0  0  0  0
   -3.0771   -1.4943   -0.2152 C   0  0  0  0  0  0  0  0  0  0  0  0
   -3.5083   -0.0179   -0.2953 C   0  0  0  0  0  0  0  0  0  0  0  0
   -2.6737    0.8129    0.7022 C   0  0  0  0  0  0  0  0  0  0  0  0
   -1.2361    0.7421    0.2714 C   0  0  0  0  0  0  0  0  0  0  0  0
   -0.3809    1.4668    1.2464 C   0  0  0  0  0  0  0  0  0  0  0  0
   -0.3839    2.8268    1.8050 C   0  0  0  0  0  0  0  0  0  0  0  0
    0.3111    2.4220    0.4368 C   0  0  0  0  0  0  0  0  0  0  0  0
  1  2  1  0  0  0  0
  1  6  1  0  0  0  0
  2  3  1  0  0  0  0
  3  4  1  0  0  0  0
  4  5  1  0  0  0  0
  4 13  1  0  0  0  0
  5  6  1  0  0  0  0
  5  7  1  0  0  0  0
  7  8  1  0  0  0  0
  7 12  1  0  0  0  0
  8  9  1  0  0  0  0
  9 10  1  0  0  0  0
 10 11  1  0  0  0  0
 11 12  1  0  0  0  0
 12 13  1  0  0  0  0
 13 14  1  0  0  0  0
 13 15  1  0  0  0  0
 14 15  1  0  0  0  0
M  END
