
 OpenBabel03222517383D

 14 17  0  0  0  0  0  0  0  0999 V2000
    2.7109   -0.6279    0.4197 C   0  0  0  0  0  0  0  0  0  0  0  0
    3.0021    0.5753   -0.3584 C   0  0  0  0  0  0  0  0  0  0  0  0
    1.7601    1.3354   -0.0280 C   0  0  0  0  0  0  0  0  0  0  0  0
    0.3574    0.3013   -0.9645 C   0  0  0  0  0  0  0  0  0  0  0  0
    0.8393   -1.2429    0.0632 C   0  0  0  0  0  0  0  0  0  0  0  0
    2.0665   -1.4592   -0.6830 C   0  0  0  0  0  0  0  0  0  0  0  0
   -0.3676   -2.0272    0.0964 C   0  0  0  0  0  0  0  0  0  0  0  0
   -1.7442   -2.3223   -0.1337 C   0  0  0  0  0  0  0  0  0  0  0  0
   -2.8192   -1.3717   -0.1262 C   0  0  0  0  0  0  0  0  0  0  0  0
   -1.6905    0.0740   -0.8050 C   0  0  0  0  0  0  0  0  0  0  0  0
   -2.1202    0.4481    0.5807 C   0  0  0  0  0  0  0  0  0  0  0  0
   -1.7711    1.7834    0.2774 C   0  0  0  0  0  0  0  0  0  0  0  0
   -0.4335    1.4137    0.6932 C   0  0  0  0  0  0  0  0  0  0  0  0
   -0.8612   -0.4137    0.2500 C   0  0  0  0  0  0  0  0  0  0  0  0
  1  2  1  0  0  0  0
  1  6  1  0  0  0  0
  2  3  1  0  0  0  0
  3  4  1  0  0  0  0
  4  5  1  0  0  0  0
  4 13  1  0  0  0  0
  5  6  1  0  0  0  0
  5  7  1  0  0  0  0
  7  8  1  0  0  0  0
  7 14  1  0  0  0  0
  8  9  1  0  0  0  0
  9 10  1  0  0  0  0
 10 11  1  0  0  0  0
 10 14  1  0  0  0  0
 11 12  1  0  0  0  0
 12 13  1  0  0  0  0
 13 14  1  0  0  0  0
M  END
