
 OpenBabel03222517383D

 15 18  0  0  0  0  0  0  0  0999 V2000
   -1.4792    3.1351    0.2571 C   0  0  0  0  0  0  0  0  0  0  0  0
   -0.1062    3.7785    0.0669 C   0  0  0  0  0  0  0  0  0  0  0  0
    0.8884    2.9367    0.8947 C   0  0  0  0  0  0  0  0  0  0  0  0
    0.6584    1.5536    0.3596 C   0  0  0  0  0  0  0  0  0  0  0  0
   -0.6339    0.9696   -0.1161 C   0  0  0  0  0  0  0  0  0  0  0  0
   -1.5681    1.9710   -0.7513 C   0  0  0  0  0  0  0  0  0  0  0  0
    0.1720   -0.0057   -1.0016 C   0  0  0  0  0  0  0  0  0  0  0  0
    1.9149    0.4982   -0.9466 C   0  0  0  0  0  0  0  0  0  0  0  0
    1.7833    0.4863    0.5778 C   0  0  0  0  0  0  0  0  0  0  0  0
    1.4777   -1.0535    0.5007 C   0  0  0  0  0  0  0  0  0  0  0  0
    1.8198   -2.3105    1.1416 C   0  0  0  0  0  0  0  0  0  0  0  0
    1.4495   -3.2601   -0.1009 C   0  0  0  0  0  0  0  0  0  0  0  0
   -0.0316   -3.5620    0.0483 C   0  0  0  0  0  0  0  0  0  0  0  0
   -0.7307   -2.3437   -0.5125 C   0  0  0  0  0  0  0  0  0  0  0  0
    0.0378   -1.1298    0.0144 C   0  0  0  0  0  0  0  0  0  0  0  0
  1  2  1  0  0  0  0
  1  6  1  0  0  0  0
  2  3  1  0  0  0  0
  3  4  1  0  0  0  0
  4  5  1  0  0  0  0
  4  9  1  0  0  0  0
  5  6  1  0  0  0  0
  5  7  1  0  0  0  0
  7  8  1  0  0  0  0
  7 15  1  0  0  0  0
  8  9  1  0  0  0  0
  9 10  1  0  0  0  0
 10 11  1  0  0  0  0
 10 15  1  0  0  0  0
 11 12  1  0  0  0  0
 12 13  1  0  0  0  0
 13 14  1  0  0  0  0
 14 15  1  0  0  0  0
M  END
