
 OpenBabel03222517373D

 13 16  0  0  0  0  0  0  0  0999 V2000
   -3.0854    0.4195    0.5133 C   0  0  0  0  0  0  0  0  0  0  0  0
   -2.1499    1.6234    1.0266 C   0  0  0  0  0  0  0  0  0  0  0  0
   -1.0565    0.6636    0.9211 C   0  0  0  0  0  0  0  0  0  0  0  0
   -1.6132    0.7744   -0.8659 C   0  0  0  0  0  0  0  0  0  0  0  0
   -2.0851   -0.4980   -0.5244 C   0  0  0  0  0  0  0  0  0  0  0  0
   -0.2822   -0.7201   -0.6007 C   0  0  0  0  0  0  0  0  0  0  0  0
    0.5705   -0.9457   -1.8659 C   0  0  0  0  0  0  0  0  0  0  0  0
    1.1853    0.4695   -2.1015 C   0  0  0  0  0  0  0  0  0  0  0  0
    1.9772    0.8051   -0.8461 C   0  0  0  0  0  0  0  0  0  0  0  0
    2.7555   -0.0558    0.0974 C   0  0  0  0  0  0  0  0  0  0  0  0
    1.7145   -0.7903    0.9783 C   0  0  0  0  0  0  0  0  0  0  0  0
    0.4754    0.3724    1.2047 C   0  0  0  0  0  0  0  0  0  0  0  0
    0.6504    0.7832   -0.0916 C   0  0  0  0  0  0  0  0  0  0  0  0
  1  2  1  0  0  0  0
  1  5  1  0  0  0  0
  2  3  1  0  0  0  0
  3  4  1  0  0  0  0
  3  7  1  0  0  0  0
  4  5  1  0  0  0  0
  5  6  1  0  0  0  0
  6  7  1  0  0  0  0
  7  8  1  0  0  0  0
  7 12  1  0  0  0  0
  8  9  1  0  0  0  0
  9 10  1  0  0  0  0
  9 13  1  0  0  0  0
 10 11  1  0  0  0  0
 11 12  1  0  0  0  0
 12 13  1  0  0  0  0
M  END
