
 OpenBabel03222517353D

  9 11  0  0  0  0  0  0  0  0999 V2000
   -1.5785    0.7228   -0.4296 C   0  0  0  0  0  0  0  0  0  0  0  0
   -1.5889   -0.7462   -0.1157 C   0  0  0  0  0  0  0  0  0  0  0  0
   -0.1259   -1.3445    0.0024 C   0  0  0  0  0  0  0  0  0  0  0  0
    0.0504   -1.1104    1.4849 C   0  0  0  0  0  0  0  0  0  0  0  0
    0.0081    0.5468    1.5060 C   0  0  0  0  0  0  0  0  0  0  0  0
   -0.1888    1.1821   -0.0008 C   0  0  0  0  0  0  0  0  0  0  0  0
    0.8839    0.6355   -0.8891 C   0  0  0  0  0  0  0  0  0  0  0  0
    2.2212    0.6226   -0.2654 C   0  0  0  0  0  0  0  0  0  0  0  0
    1.3061   -0.7499   -0.4885 C   0  0  0  0  0  0  0  0  0  0  0  0
  1  2  1  0  0  0  0
  1  6  1  0  0  0  0
  2  3  1  0  0  0  0
  3  4  1  0  0  0  0
  3  7  1  0  0  0  0
  4  5  1  0  0  0  0
  5  6  1  0  0  0  0
  6  7  1  0  0  0  0
  7  8  1  0  0  0  0
  7  9  1  0  0  0  0
  8  9  1  0  0  0  0
M  END
