
 OpenBabel03222517353D

  8  9  0  0  0  0  0  0  0  0999 V2000
   -1.4591   -0.2673    0.9982 C   0  0  0  0  0  0  0  0  0  0  0  0
   -0.9772   -1.4527    0.1646 C   0  0  0  0  0  0  0  0  0  0  0  0
    0.2772   -0.9590   -0.7632 C   0  0  0  0  0  0  0  0  0  0  0  0
   -0.0158    0.2426   -1.6849 C   0  0  0  0  0  0  0  0  0  0  0  0
   -0.0279    1.4601   -0.7053 C   0  0  0  0  0  0  0  0  0  0  0  0
    0.6153    0.9586    0.6378 C   0  0  0  0  0  0  0  0  0  0  0  0
   -0.1639    0.1179    1.6409 C   0  0  0  0  0  0  0  0  0  0  0  0
    1.4767   -0.1593   -0.0273 C   0  0  0  0  0  0  0  0  0  0  0  0
  1  2  1  0  0  0  0
  1  6  1  0  0  0  0
  2  3  1  0  0  0  0
  3  4  1  0  0  0  0
  4  5  1  0  0  0  0
  4  7  1  0  0  0  0
  4  8  1  0  0  0  0
  5  6  1  0  0  0  0
  7  8  1  0  0  0  0
M  END
