
 OpenBabel03222517363D

 12 13  0  0  0  0  0  0  0  0999 V2000
    0.2139    2.0485    0.5246 C   0  0  0  0  0  0  0  0  0  0  0  0
    1.2967    1.3623   -0.4208 C   0  0  0  0  0  0  0  0  0  0  0  0
    2.1105    0.3651    0.3864 C   0  0  0  0  0  0  0  0  0  0  0  0
    1.3196   -0.9597    0.7223 C   0  0  0  0  0  0  0  0  0  0  0  0
    1.0601   -1.9882   -0.3403 C   0  0  0  0  0  0  0  0  0  0  0  0
   -0.1418   -1.6546   -1.1683 C   0  0  0  0  0  0  0  0  0  0  0  0
   -1.5073   -1.7676   -0.5819 C   0  0  0  0  0  0  0  0  0  0  0  0
   -2.3714   -0.0551   -0.3615 C   0  0  0  0  0  0  0  0  0  0  0  0
   -1.4855    1.4486    0.8238 C   0  0  0  0  0  0  0  0  0  0  0  0
   -1.4159    0.9345   -0.5186 C   0  0  0  0  0  0  0  0  0  0  0  0
   -1.7470   -0.4413    0.9860 C   0  0  0  0  0  0  0  0  0  0  0  0
   -0.0955   -0.7519    1.5612 C   0  0  0  0  0  0  0  0  0  0  0  0
  1  2  1  0  0  0  0
  1 10  1  0  0  0  0
  2  3  1  0  0  0  0
  3  4  1  0  0  0  0
  4  5  1  0  0  0  0
  5  6  1  0  0  0  0
  5 12  1  0  0  0  0
  6  7  1  0  0  0  0
  7  8  1  0  0  0  0
  8  9  1  0  0  0  0
  8 11  1  0  0  0  0
  9 10  1  0  0  0  0
 11 12  1  0  0  0  0
M  END
