
 OpenBabel03222517353D

  8 12  0  0  0  0  0  0  0  0999 V2000
    0.6264    0.4384    0.0047 C   0  0  0  0  0  0  0  0  0  0  0  0
    0.2770   -0.9583   -0.4630 C   0  0  0  0  0  0  0  0  0  0  0  0
    0.4170    0.4643   -1.4325 C   0  0  0  0  0  0  0  0  0  0  0  0
    2.1538    1.2800   -1.4958 C   0  0  0  0  0  0  0  0  0  0  0  0
    1.9102   -0.0071   -1.1746 C   0  0  0  0  0  0  0  0  0  0  0  0
    3.2299   -0.2156   -0.8408 C   0  0  0  0  0  0  0  0  0  0  0  0
    1.9601   -1.4133   -0.1144 C   0  0  0  0  0  0  0  0  0  0  0  0
    1.8420   -0.0965    0.5430 C   0  0  0  0  0  0  0  0  0  0  0  0
  1  2  1  0  0  0  0
  1  3  1  0  0  0  0
  1  8  1  0  0  0  0
  2  3  1  0  0  0  0
  2  8  1  0  0  0  0
  3  4  1  0  0  0  0
  4  5  1  0  0  0  0
  4  6  1  0  0  0  0
  5  6  1  0  0  0  0
  5  7  1  0  0  0  0
  6  7  1  0  0  0  0
  7  8  1  0  0  0  0
M  END
