
 OpenBabel03222517373D

 14 16  0  0  0  0  0  0  0  0999 V2000
    0.2378    2.1416    0.1171 C   0  0  0  0  0  0  0  0  0  0  0  0
    0.6855    3.3669   -0.1795 C   0  0  0  0  0  0  0  0  0  0  0  0
    1.2508    2.3478    0.9653 C   0  0  0  0  0  0  0  0  0  0  0  0
    0.6003    0.3491    0.6323 C   0  0  0  0  0  0  0  0  0  0  0  0
    1.9983    0.1647    0.7736 C   0  0  0  0  0  0  0  0  0  0  0  0
    1.9996    1.0851   -0.4448 C   0  0  0  0  0  0  0  0  0  0  0  0
    2.0247   -1.1803    0.3363 C   0  0  0  0  0  0  0  0  0  0  0  0
    0.8710   -1.5382   -0.5337 C   0  0  0  0  0  0  0  0  0  0  0  0
   -0.6442   -0.7348   -1.1269 C   0  0  0  0  0  0  0  0  0  0  0  0
   -1.9110    0.3870   -1.1937 C   0  0  0  0  0  0  0  0  0  0  0  0
   -2.5693   -0.2654   -0.0387 C   0  0  0  0  0  0  0  0  0  0  0  0
   -1.0703   -0.6637    1.0567 C   0  0  0  0  0  0  0  0  0  0  0  0
   -1.7862   -2.1078    0.5256 C   0  0  0  0  0  0  0  0  0  0  0  0
   -0.9885   -2.2004   -0.6631 C   0  0  0  0  0  0  0  0  0  0  0  0
  1  2  1  0  0  0  0
  1 10  1  0  0  0  0
  2  3  1  0  0  0  0
  3  4  1  0  0  0  0
  4  5  1  0  0  0  0
  4 14  1  0  0  0  0
  5  6  1  0  0  0  0
  6  7  1  0  0  0  0
  7  8  1  0  0  0  0
  8  9  1  0  0  0  0
  8 14  1  0  0  0  0
  9 10  1  0  0  0  0
  9 11  1  0  0  0  0
 11 12  1  0  0  0  0
 12 13  1  0  0  0  0
 13 14  1  0  0  0  0
M  END
