
 OpenBabel03222517373D

 13 15  0  0  0  0  0  0  0  0999 V2000
    1.5933    0.2177    0.2782 C   0  0  0  0  0  0  0  0  0  0  0  0
    0.7891    0.3639    1.5869 C   0  0  0  0  0  0  0  0  0  0  0  0
    0.8560    1.8417    1.8981 C   0  0  0  0  0  0  0  0  0  0  0  0
   -0.0078    2.5133    0.7726 C   0  0  0  0  0  0  0  0  0  0  0  0
    0.9193    2.6996   -0.4580 C   0  0  0  0  0  0  0  0  0  0  0  0
    0.7828    0.9510   -0.7611 C   0  0  0  0  0  0  0  0  0  0  0  0
    1.5080    4.1599    0.1555 C   0  0  0  0  0  0  0  0  0  0  0  0
    0.4589    5.2891    0.7873 C   0  0  0  0  0  0  0  0  0  0  0  0
   -0.4161    5.9904   -0.2626 C   0  0  0  0  0  0  0  0  0  0  0  0
   -1.5393    5.1353   -0.8213 C   0  0  0  0  0  0  0  0  0  0  0  0
   -1.8724    3.8517   -0.0700 C   0  0  0  0  0  0  0  0  0  0  0  0
   -1.0218    3.5035    1.1642 C   0  0  0  0  0  0  0  0  0  0  0  0
   -0.4490    4.6996    1.8543 C   0  0  0  0  0  0  0  0  0  0  0  0
  1  2  1  0  0  0  0
  1  6  1  0  0  0  0
  2  3  1  0  0  0  0
  3  4  1  0  0  0  0
  4  5  1  0  0  0  0
  4 12  1  0  0  0  0
  5  6  1  0  0  0  0
  5  7  1  0  0  0  0
  7  8  1  0  0  0  0
  8  9  1  0  0  0  0
  8 13  1  0  0  0  0
  9 10  1  0  0  0  0
 10 11  1  0  0  0  0
 11 12  1  0  0  0  0
 12 13  1  0  0  0  0
M  END
