
 OpenBabel03222517363D

 10 14  0  0  0  0  0  0  0  0999 V2000
   -2.0223   -0.2449   -0.5942 C   0  0  0  0  0  0  0  0  0  0  0  0
   -1.4970   -1.5586   -0.0763 C   0  0  0  0  0  0  0  0  0  0  0  0
   -0.1115   -1.2686    0.5257 C   0  0  0  0  0  0  0  0  0  0  0  0
    0.6020   -0.9310   -0.6953 C   0  0  0  0  0  0  0  0  0  0  0  0
   -0.7448    0.4950   -0.7530 C   0  0  0  0  0  0  0  0  0  0  0  0
   -0.0686    1.5422    0.3459 C   0  0  0  0  0  0  0  0  0  0  0  0
    0.2611    0.1968    0.7770 C   0  0  0  0  0  0  0  0  0  0  0  0
    1.3143    0.7652   -0.7557 C   0  0  0  0  0  0  0  0  0  0  0  0
    2.0506   -0.2228   -0.2607 C   0  0  0  0  0  0  0  0  0  0  0  0
    1.5997    1.5965    0.2546 C   0  0  0  0  0  0  0  0  0  0  0  0
  1  2  1  0  0  0  0
  1  5  1  0  0  0  0
  2  3  1  0  0  0  0
  3  4  1  0  0  0  0
  3  7  1  0  0  0  0
  4  5  1  0  0  0  0
  4  9  1  0  0  0  0
  5  6  1  0  0  0  0
  6  7  1  0  0  0  0
  6 10  1  0  0  0  0
  7  8  1  0  0  0  0
  8  9  1  0  0  0  0
  8 10  1  0  0  0  0
  9 10  1  0  0  0  0
M  END
