
 OpenBabel03222517373D

 12 15  0  0  0  0  0  0  0  0999 V2000
   -2.8185    0.7141   -0.3743 C   0  0  0  0  0  0  0  0  0  0  0  0
   -2.8745   -0.8141   -0.5517 C   0  0  0  0  0  0  0  0  0  0  0  0
   -1.5110   -1.3535   -0.8684 C   0  0  0  0  0  0  0  0  0  0  0  0
   -0.5744   -0.8211    0.1855 C   0  0  0  0  0  0  0  0  0  0  0  0
   -0.5394    0.6522    0.7154 C   0  0  0  0  0  0  0  0  0  0  0  0
   -1.9542    1.1968    0.7957 C   0  0  0  0  0  0  0  0  0  0  0  0
    0.5242    0.9652   -0.3756 C   0  0  0  0  0  0  0  0  0  0  0  0
    1.9984    0.9806    0.0505 C   0  0  0  0  0  0  0  0  0  0  0  0
    3.0923    0.3856   -0.8996 C   0  0  0  0  0  0  0  0  0  0  0  0
    3.2099   -0.8520    0.0208 C   0  0  0  0  0  0  0  0  0  0  0  0
    1.7971   -0.5375    0.4688 C   0  0  0  0  0  0  0  0  0  0  0  0
    0.7007   -0.5421   -0.5821 C   0  0  0  0  0  0  0  0  0  0  0  0
  1  2  1  0  0  0  0
  1  6  1  0  0  0  0
  2  3  1  0  0  0  0
  3  4  1  0  0  0  0
  4  5  1  0  0  0  0
  4 11  1  0  0  0  0
  5  6  1  0  0  0  0
  5  7  1  0  0  0  0
  7  8  1  0  0  0  0
  7 12  1  0  0  0  0
  8  9  1  0  0  0  0
  9 10  1  0  0  0  0
 10 11  1  0  0  0  0
 10 12  1  0  0  0  0
 11 12  1  0  0  0  0
M  END
