
 OpenBabel03222517363D

 12 15  0  0  0  0  0  0  0  0999 V2000
   -2.2454   -0.7697    0.4155 C   0  0  0  0  0  0  0  0  0  0  0  0
   -1.4273   -1.7843   -0.3840 C   0  0  0  0  0  0  0  0  0  0  0  0
   -0.0207   -2.0481    0.1533 C   0  0  0  0  0  0  0  0  0  0  0  0
    0.9841   -2.5753   -0.8346 C   0  0  0  0  0  0  0  0  0  0  0  0
    1.2262   -1.1833   -0.3862 C   0  0  0  0  0  0  0  0  0  0  0  0
    2.3849   -0.0384   -0.3814 C   0  0  0  0  0  0  0  0  0  0  0  0
    2.1570    0.9612    0.5857 C   0  0  0  0  0  0  0  0  0  0  0  0
    1.7214    1.7155   -0.5350 C   0  0  0  0  0  0  0  0  0  0  0  0
    0.3372    2.3665    0.1408 C   0  0  0  0  0  0  0  0  0  0  0  0
   -1.0233    2.0786   -0.5782 C   0  0  0  0  0  0  0  0  0  0  0  0
   -1.8276    1.5732    0.4468 C   0  0  0  0  0  0  0  0  0  0  0  0
   -2.4055    0.5949   -0.3576 C   0  0  0  0  0  0  0  0  0  0  0  0
  1  2  1  0  0  0  0
  1 12  1  0  0  0  0
  2  3  1  0  0  0  0
  3  4  1  0  0  0  0
  3 11  1  0  0  0  0
  4  5  1  0  0  0  0
  5  6  1  0  0  0  0
  5  7  1  0  0  0  0
  5 10  1  0  0  0  0
  6  7  1  0  0  0  0
  7  8  1  0  0  0  0
  8  9  1  0  0  0  0
  9 10  1  0  0  0  0
 10 11  1  0  0  0  0
 11 12  1  0  0  0  0
M  END
