
 OpenBabel03222517383D

 14 17  0  0  0  0  0  0  0  0999 V2000
   -1.3053    3.0386    0.1315 C   0  0  0  0  0  0  0  0  0  0  0  0
    0.1078    3.1911   -0.3523 C   0  0  0  0  0  0  0  0  0  0  0  0
    0.7845    1.8148   -0.0941 C   0  0  0  0  0  0  0  0  0  0  0  0
   -0.0908    0.3861   -0.9557 C   0  0  0  0  0  0  0  0  0  0  0  0
   -1.3365    0.8011   -0.1700 C   0  0  0  0  0  0  0  0  0  0  0  0
   -1.7995    2.0296   -0.8265 C   0  0  0  0  0  0  0  0  0  0  0  0
   -0.7133   -0.0986    0.9967 C   0  0  0  0  0  0  0  0  0  0  0  0
   -1.7182   -1.3720    1.0465 C   0  0  0  0  0  0  0  0  0  0  0  0
   -0.8827   -2.4467    0.4158 C   0  0  0  0  0  0  0  0  0  0  0  0
   -0.0275   -1.5251   -0.7716 C   0  0  0  0  0  0  0  0  0  0  0  0
    1.2795   -1.9153   -0.1804 C   0  0  0  0  0  0  0  0  0  0  0  0
    2.2163   -2.0877    1.0467 C   0  0  0  0  0  0  0  0  0  0  0  0
    2.8340   -0.8879    0.3056 C   0  0  0  0  0  0  0  0  0  0  0  0
    1.1125   -0.4823    0.5306 C   0  0  0  0  0  0  0  0  0  0  0  0
  1  2  1  0  0  0  0
  1  6  1  0  0  0  0
  2  3  1  0  0  0  0
  3  4  1  0  0  0  0
  4  5  1  0  0  0  0
  4 14  1  0  0  0  0
  5  6  1  0  0  0  0
  5  7  1  0  0  0  0
  7  8  1  0  0  0  0
  8  9  1  0  0  0  0
  9 10  1  0  0  0  0
  9 11  1  0  0  0  0
  9 14  1  0  0  0  0
 10 11  1  0  0  0  0
 11 12  1  0  0  0  0
 12 13  1  0  0  0  0
 13 14  1  0  0  0  0
M  END
