
 OpenBabel03222517373D

 11 15  0  0  0  0  0  0  0  0999 V2000
    0.1197   -0.3002   -0.7773 C   0  0  0  0  0  0  0  0  0  0  0  0
   -0.5033   -0.2925   -2.3084 C   0  0  0  0  0  0  0  0  0  0  0  0
   -0.6411   -1.4366   -1.3390 C   0  0  0  0  0  0  0  0  0  0  0  0
   -2.1125   -1.6368   -1.3427 C   0  0  0  0  0  0  0  0  0  0  0  0
   -2.2200   -2.0762   -2.9307 C   0  0  0  0  0  0  0  0  0  0  0  0
   -3.3972   -2.3974   -3.6083 C   0  0  0  0  0  0  0  0  0  0  0  0
   -2.6466   -0.9937   -3.8783 C   0  0  0  0  0  0  0  0  0  0  0  0
   -2.0701    0.2741   -3.0409 C   0  0  0  0  0  0  0  0  0  0  0  0
   -2.7301    0.9200   -1.8364 C   0  0  0  0  0  0  0  0  0  0  0  0
   -1.9911    1.1647   -0.5959 C   0  0  0  0  0  0  0  0  0  0  0  0
   -2.8096   -0.2047   -0.8596 C   0  0  0  0  0  0  0  0  0  0  0  0
  1  2  1  0  0  0  0
  1  3  1  0  0  0  0
  2  3  1  0  0  0  0
  2  9  1  0  0  0  0
  3  4  1  0  0  0  0
  4  5  1  0  0  0  0
  4 10  1  0  0  0  0
  5  6  1  0  0  0  0
  5 11  1  0  0  0  0
  6  7  1  0  0  0  0
  7  8  1  0  0  0  0
  8  9  1  0  0  0  0
  8 11  1  0  0  0  0
  9 10  1  0  0  0  0
 10 11  1  0  0  0  0
M  END
