
 OpenBabel03222517383D

 12 17  0  0  0  0  0  0  0  0999 V2000
    0.4909   -0.6747   -0.4856 C   0  0  0  0  0  0  0  0  0  0  0  0
    0.8118   -1.4879    0.6285 C   0  0  0  0  0  0  0  0  0  0  0  0
   -0.8417   -2.1918    0.2913 C   0  0  0  0  0  0  0  0  0  0  0  0
   -0.5690   -3.5705   -0.6310 C   0  0  0  0  0  0  0  0  0  0  0  0
    0.0879   -2.2628   -1.0365 C   0  0  0  0  0  0  0  0  0  0  0  0
    1.2110   -3.1912   -0.0898 C   0  0  0  0  0  0  0  0  0  0  0  0
    2.1708   -2.1427   -0.0642 C   0  0  0  0  0  0  0  0  0  0  0  0
    2.6140   -2.2207   -1.7479 C   0  0  0  0  0  0  0  0  0  0  0  0
    2.3700   -4.0040   -2.4607 C   0  0  0  0  0  0  0  0  0  0  0  0
    0.5295   -4.4731   -1.9713 C   0  0  0  0  0  0  0  0  0  0  0  0
    1.5229   -4.1291   -1.0594 C   0  0  0  0  0  0  0  0  0  0  0  0
    1.6447   -2.9490   -2.4272 C   0  0  0  0  0  0  0  0  0  0  0  0
  1  2  1  0  0  0  0
  1  5  1  0  0  0  0
  2  3  1  0  0  0  0
  2  7  1  0  0  0  0
  3  4  1  0  0  0  0
  4  5  1  0  0  0  0
  4 10  1  0  0  0  0
  5  6  1  0  0  0  0
  6  7  1  0  0  0  0
  6 11  1  0  0  0  0
  7  8  1  0  0  0  0
  8  9  1  0  0  0  0
  8 12  1  0  0  0  0
  9 10  1  0  0  0  0
  9 12  1  0  0  0  0
 10 11  1  0  0  0  0
 11 12  1  0  0  0  0
M  END
