
 OpenBabel03222517363D

 10 13  0  0  0  0  0  0  0  0999 V2000
    1.2290   -0.0919    0.3472 C   0  0  0  0  0  0  0  0  0  0  0  0
    0.4660   -0.2908   -0.9108 C   0  0  0  0  0  0  0  0  0  0  0  0
    0.2170    0.9642   -0.0968 C   0  0  0  0  0  0  0  0  0  0  0  0
   -1.1781    1.1088    0.4241 C   0  0  0  0  0  0  0  0  0  0  0  0
   -0.4660    2.0619    1.2793 C   0  0  0  0  0  0  0  0  0  0  0  0
   -0.0959    1.9011    2.7344 C   0  0  0  0  0  0  0  0  0  0  0  0
   -1.1408    2.9021    2.3116 C   0  0  0  0  0  0  0  0  0  0  0  0
    0.5181    2.3949    0.2242 C   0  0  0  0  0  0  0  0  0  0  0  0
    0.6976    3.6615   -0.5224 C   0  0  0  0  0  0  0  0  0  0  0  0
    1.7507    3.2088    0.4895 C   0  0  0  0  0  0  0  0  0  0  0  0
  1  2  1  0  0  0  0
  1  3  1  0  0  0  0
  2  3  1  0  0  0  0
  3  4  1  0  0  0  0
  3  8  1  0  0  0  0
  4  5  1  0  0  0  0
  5  6  1  0  0  0  0
  5  7  1  0  0  0  0
  5  8  1  0  0  0  0
  6  7  1  0  0  0  0
  8  9  1  0  0  0  0
  8 10  1  0  0  0  0
  9 10  1  0  0  0  0
M  END
