
 OpenBabel03222517363D

 15 16  0  0  0  0  0  0  0  0999 V2000
   -3.3901   -0.9060   -0.3778 C   0  0  0  0  0  0  0  0  0  0  0  0
   -2.2919   -1.6649    0.3372 C   0  0  0  0  0  0  0  0  0  0  0  0
   -1.3231   -2.2125   -0.6857 C   0  0  0  0  0  0  0  0  0  0  0  0
   -0.2468   -2.9263    0.0595 C   0  0  0  0  0  0  0  0  0  0  0  0
    0.7902   -1.9376    0.6140 C   0  0  0  0  0  0  0  0  0  0  0  0
    1.2618   -0.5667   -0.1542 C   0  0  0  0  0  0  0  0  0  0  0  0
    2.8262   -0.8287    0.0627 C   0  0  0  0  0  0  0  0  0  0  0  0
    3.7743    0.2754   -0.2651 C   0  0  0  0  0  0  0  0  0  0  0  0
    3.2573    1.5033    0.4577 C   0  0  0  0  0  0  0  0  0  0  0  0
    2.0691    1.9045   -0.3913 C   0  0  0  0  0  0  0  0  0  0  0  0
    0.8833    1.1050    0.1815 C   0  0  0  0  0  0  0  0  0  0  0  0
   -0.2644    2.1048   -0.2603 C   0  0  0  0  0  0  0  0  0  0  0  0
   -1.5628    1.9325    0.4822 C   0  0  0  0  0  0  0  0  0  0  0  0
   -2.5804    1.4129   -0.4991 C   0  0  0  0  0  0  0  0  0  0  0  0
   -3.5461    0.4837    0.2097 C   0  0  0  0  0  0  0  0  0  0  0  0
  1  2  1  0  0  0  0
  1 15  1  0  0  0  0
  2  3  1  0  0  0  0
  3  4  1  0  0  0  0
  4  5  1  0  0  0  0
  5  6  1  0  0  0  0
  6  7  1  0  0  0  0
  6 11  1  0  0  0  0
  7  8  1  0  0  0  0
  8  9  1  0  0  0  0
  9 10  1  0  0  0  0
 10 11  1  0  0  0  0
 11 12  1  0  0  0  0
 12 13  1  0  0  0  0
 13 14  1  0  0  0  0
 14 15  1  0  0  0  0
M  END
