
 OpenBabel03222517373D

 13 15  0  0  0  0  0  0  0  0999 V2000
   -0.7892   -1.1942    1.1563 C   0  0  0  0  0  0  0  0  0  0  0  0
   -1.3584   -1.9177   -0.3672 C   0  0  0  0  0  0  0  0  0  0  0  0
   -0.0569   -1.8100    0.0854 C   0  0  0  0  0  0  0  0  0  0  0  0
    0.9859   -2.4664   -0.6720 C   0  0  0  0  0  0  0  0  0  0  0  0
    2.0523   -1.8397    0.1141 C   0  0  0  0  0  0  0  0  0  0  0  0
    1.8998   -0.1030   -0.5195 C   0  0  0  0  0  0  0  0  0  0  0  0
    1.1886   -0.3592    1.0577 C   0  0  0  0  0  0  0  0  0  0  0  0
    1.0697    1.5565   -0.7844 C   0  0  0  0  0  0  0  0  0  0  0  0
    1.4048    2.9501   -0.1410 C   0  0  0  0  0  0  0  0  0  0  0  0
   -0.0006    3.3048   -0.5302 C   0  0  0  0  0  0  0  0  0  0  0  0
   -0.7895    2.1086   -0.4191 C   0  0  0  0  0  0  0  0  0  0  0  0
   -1.6164    0.9950    0.0359 C   0  0  0  0  0  0  0  0  0  0  0  0
   -0.3994    0.2148   -0.1051 C   0  0  0  0  0  0  0  0  0  0  0  0
  1  2  1  0  0  0  0
  1 12  1  0  0  0  0
  2  3  1  0  0  0  0
  3  4  1  0  0  0  0
  3 13  1  0  0  0  0
  4  5  1  0  0  0  0
  5  6  1  0  0  0  0
  6  7  1  0  0  0  0
  7  8  1  0  0  0  0
  7 13  1  0  0  0  0
  8  9  1  0  0  0  0
  9 10  1  0  0  0  0
 10 11  1  0  0  0  0
 11 12  1  0  0  0  0
 11 13  1  0  0  0  0
M  END
