
 OpenBabel03222517373D

 11 14  0  0  0  0  0  0  0  0999 V2000
   -2.5866    1.0193    0.3701 C   0  0  0  0  0  0  0  0  0  0  0  0
   -1.9333   -0.0154    1.3218 C   0  0  0  0  0  0  0  0  0  0  0  0
   -0.7332   -0.4519    0.4844 C   0  0  0  0  0  0  0  0  0  0  0  0
    0.3064   -1.4413    0.9471 C   0  0  0  0  0  0  0  0  0  0  0  0
    1.4026   -1.4533   -0.1166 C   0  0  0  0  0  0  0  0  0  0  0  0
    2.7978   -1.1595    0.2601 C   0  0  0  0  0  0  0  0  0  0  0  0
    2.0238   -0.1558   -0.6048 C   0  0  0  0  0  0  0  0  0  0  0  0
    1.1875    1.0561   -0.2136 C   0  0  0  0  0  0  0  0  0  0  0  0
   -0.3056    0.7109   -0.2571 C   0  0  0  0  0  0  0  0  0  0  0  0
   -1.3379    1.8080   -0.1183 C   0  0  0  0  0  0  0  0  0  0  0  0
   -0.8358   -0.4915   -1.0601 C   0  0  0  0  0  0  0  0  0  0  0  0
  1  2  1  0  0  0  0
  1 11  1  0  0  0  0
  2  3  1  0  0  0  0
  3  4  1  0  0  0  0
  3  9  1  0  0  0  0
  3 10  1  0  0  0  0
  4  5  1  0  0  0  0
  5  6  1  0  0  0  0
  6  7  1  0  0  0  0
  6 10  1  0  0  0  0
  7  8  1  0  0  0  0
  7 10  1  0  0  0  0
  8  9  1  0  0  0  0
 10 11  1  0  0  0  0
M  END
