
 OpenBabel03222517363D

 12 14  0  0  0  0  0  0  0  0999 V2000
    2.7654   -0.2483    0.0225 C   0  0  0  0  0  0  0  0  0  0  0  0
    1.8049   -1.4023    0.2907 C   0  0  0  0  0  0  0  0  0  0  0  0
    0.5537   -1.0612    1.1389 C   0  0  0  0  0  0  0  0  0  0  0  0
   -0.2800    0.1003    0.6731 C   0  0  0  0  0  0  0  0  0  0  0  0
   -1.6152    0.5553    1.3075 C   0  0  0  0  0  0  0  0  0  0  0  0
   -2.6335    0.4231    0.2115 C   0  0  0  0  0  0  0  0  0  0  0  0
   -1.7133   -0.1327   -0.8196 C   0  0  0  0  0  0  0  0  0  0  0  0
   -0.1508    0.6792   -0.6697 C   0  0  0  0  0  0  0  0  0  0  0  0
    1.0125    2.2363    0.2930 C   0  0  0  0  0  0  0  0  0  0  0  0
    0.8994    1.7317    1.6534 C   0  0  0  0  0  0  0  0  0  0  0  0
    0.4901    1.2453    0.3143 C   0  0  0  0  0  0  0  0  0  0  0  0
    2.0576    0.7658   -0.8117 C   0  0  0  0  0  0  0  0  0  0  0  0
  1  2  1  0  0  0  0
  1 12  1  0  0  0  0
  2  3  1  0  0  0  0
  3  4  1  0  0  0  0
  4  5  1  0  0  0  0
  4  8  1  0  0  0  0
  4 11  1  0  0  0  0
  5  6  1  0  0  0  0
  6  7  1  0  0  0  0
  7  8  1  0  0  0  0
  8  9  1  0  0  0  0
  9 10  1  0  0  0  0
 10 11  1  0  0  0  0
 11 12  1  0  0  0  0
M  END
