
 OpenBabel03222517363D

 12 14  0  0  0  0  0  0  0  0999 V2000
    2.6390    0.6442   -0.4078 C   0  0  0  0  0  0  0  0  0  0  0  0
    2.5687   -0.7849    0.1268 C   0  0  0  0  0  0  0  0  0  0  0  0
    1.1844   -1.2708   -0.1777 C   0  0  0  0  0  0  0  0  0  0  0  0
    0.3873    0.0418   -0.0637 C   0  0  0  0  0  0  0  0  0  0  0  0
    1.2816    1.2194   -0.2669 C   0  0  0  0  0  0  0  0  0  0  0  0
   -0.8514   -0.1032   -0.8949 C   0  0  0  0  0  0  0  0  0  0  0  0
   -1.8754   -0.6425    0.1423 C   0  0  0  0  0  0  0  0  0  0  0  0
   -2.8297    0.3823    0.5427 C   0  0  0  0  0  0  0  0  0  0  0  0
   -1.9407    1.1053    1.5019 C   0  0  0  0  0  0  0  0  0  0  0  0
   -0.0513    0.2591    1.3295 C   0  0  0  0  0  0  0  0  0  0  0  0
   -0.5753    1.3536    1.9129 C   0  0  0  0  0  0  0  0  0  0  0  0
   -1.1488   -0.6373    1.7030 C   0  0  0  0  0  0  0  0  0  0  0  0
  1  2  1  0  0  0  0
  1  5  1  0  0  0  0
  2  3  1  0  0  0  0
  3  4  1  0  0  0  0
  4  5  1  0  0  0  0
  4  6  1  0  0  0  0
  4  9  1  0  0  0  0
  6  7  1  0  0  0  0
  7  8  1  0  0  0  0
  8  9  1  0  0  0  0
  9 10  1  0  0  0  0
  9 12  1  0  0  0  0
 10 11  1  0  0  0  0
 11 12  1  0  0  0  0
M  END
