
 OpenBabel03222517373D

 14 16  0  0  0  0  0  0  0  0999 V2000
    1.5863    1.3857   -0.6423 C   0  0  0  0  0  0  0  0  0  0  0  0
    0.9422    1.1459    0.9659 C   0  0  0  0  0  0  0  0  0  0  0  0
    1.3334    2.5519    0.6149 C   0  0  0  0  0  0  0  0  0  0  0  0
    0.3849    2.9361   -1.2115 C   0  0  0  0  0  0  0  0  0  0  0  0
    1.1881    4.1307   -2.4414 C   0  0  0  0  0  0  0  0  0  0  0  0
    1.8074    3.3370   -1.3000 C   0  0  0  0  0  0  0  0  0  0  0  0
    0.5094    5.9003   -2.4233 C   0  0  0  0  0  0  0  0  0  0  0  0
    1.0192    6.2626   -1.0889 C   0  0  0  0  0  0  0  0  0  0  0  0
    0.4678    5.0636   -0.0019 C   0  0  0  0  0  0  0  0  0  0  0  0
    1.1866    5.6680    1.0764 C   0  0  0  0  0  0  0  0  0  0  0  0
   -0.1693    4.9878    1.2099 C   0  0  0  0  0  0  0  0  0  0  0  0
   -1.0830    3.9898   -0.4222 C   0  0  0  0  0  0  0  0  0  0  0  0
   -2.0526    3.3894    0.4347 C   0  0  0  0  0  0  0  0  0  0  0  0
   -0.6680    3.1481    0.4408 C   0  0  0  0  0  0  0  0  0  0  0  0
  1  2  1  0  0  0  0
  1 14  1  0  0  0  0
  2  3  1  0  0  0  0
  3  4  1  0  0  0  0
  4  5  1  0  0  0  0
  4 12  1  0  0  0  0
  5  6  1  0  0  0  0
  6  7  1  0  0  0  0
  6 11  1  0  0  0  0
  6 12  1  0  0  0  0
  7  8  1  0  0  0  0
  8  9  1  0  0  0  0
  9 10  1  0  0  0  0
 10 11  1  0  0  0  0
 12 13  1  0  0  0  0
 13 14  1  0  0  0  0
M  END
