
 OpenBabel03222517373D

 13 15  0  0  0  0  0  0  0  0999 V2000
    1.3850    0.1906   -0.2979 C   0  0  0  0  0  0  0  0  0  0  0  0
    0.6833    1.2094   -1.2206 C   0  0  0  0  0  0  0  0  0  0  0  0
    0.9662    0.6553   -2.6130 C   0  0  0  0  0  0  0  0  0  0  0  0
    0.1862   -0.5832   -2.7689 C   0  0  0  0  0  0  0  0  0  0  0  0
    0.8494   -1.6672   -1.7900 C   0  0  0  0  0  0  0  0  0  0  0  0
    0.5611   -1.1041   -0.2734 C   0  0  0  0  0  0  0  0  0  0  0  0
    0.6922   -3.1024   -2.2919 C   0  0  0  0  0  0  0  0  0  0  0  0
    0.2813   -3.0982   -3.7997 C   0  0  0  0  0  0  0  0  0  0  0  0
   -1.2761   -3.0953   -3.7773 C   0  0  0  0  0  0  0  0  0  0  0  0
   -2.1417   -1.9099   -4.2612 C   0  0  0  0  0  0  0  0  0  0  0  0
   -1.5297   -0.5403   -4.3061 C   0  0  0  0  0  0  0  0  0  0  0  0
   -0.0103   -0.7748   -4.3048 C   0  0  0  0  0  0  0  0  0  0  0  0
    0.8303   -1.9461   -4.6179 C   0  0  0  0  0  0  0  0  0  0  0  0
  1  2  1  0  0  0  0
  1  6  1  0  0  0  0
  2  3  1  0  0  0  0
  3  4  1  0  0  0  0
  4  5  1  0  0  0  0
  4 10  1  0  0  0  0
  5  6  1  0  0  0  0
  5  7  1  0  0  0  0
  7  8  1  0  0  0  0
  8  9  1  0  0  0  0
  9 10  1  0  0  0  0
 10 11  1  0  0  0  0
 10 13  1  0  0  0  0
 11 12  1  0  0  0  0
 12 13  1  0  0  0  0
M  END
