
 OpenBabel03222517373D

 12 15  0  0  0  0  0  0  0  0999 V2000
   -0.2662   -2.5956    0.6220 C   0  0  0  0  0  0  0  0  0  0  0  0
    0.3493   -1.3591    0.6929 C   0  0  0  0  0  0  0  0  0  0  0  0
    1.8822   -0.4902    0.1972 C   0  0  0  0  0  0  0  0  0  0  0  0
    1.3521    0.8147   -0.2650 C   0  0  0  0  0  0  0  0  0  0  0  0
    0.4641    0.6674   -1.2801 C   0  0  0  0  0  0  0  0  0  0  0  0
   -0.2277   -0.6296   -1.1508 C   0  0  0  0  0  0  0  0  0  0  0  0
   -1.5848   -0.0772    0.5450 C   0  0  0  0  0  0  0  0  0  0  0  0
   -1.4330    1.4268    0.6201 C   0  0  0  0  0  0  0  0  0  0  0  0
   -0.0155    1.8140    0.3193 C   0  0  0  0  0  0  0  0  0  0  0  0
   -0.4038    0.5636    0.3644 C   0  0  0  0  0  0  0  0  0  0  0  0
   -1.7853    0.3080   -1.1565 C   0  0  0  0  0  0  0  0  0  0  0  0
   -1.4488   -1.6653   -0.3630 C   0  0  0  0  0  0  0  0  0  0  0  0
  1  2  1  0  0  0  0
  1  6  1  0  0  0  0
  2  3  1  0  0  0  0
  2 10  1  0  0  0  0
  3  4  1  0  0  0  0
  4  5  1  0  0  0  0
  4 11  1  0  0  0  0
  5  6  1  0  0  0  0
  6  7  1  0  0  0  0
  7  8  1  0  0  0  0
  7 12  1  0  0  0  0
  8  9  1  0  0  0  0
  9 10  1  0  0  0  0
  9 11  1  0  0  0  0
 11 12  1  0  0  0  0
M  END
