
 OpenBabel03222517373D

 15 18  0  0  0  0  0  0  0  0999 V2000
   -3.6851   -1.0096   -0.2351 C   0  0  0  0  0  0  0  0  0  0  0  0
   -2.5880   -1.8450    0.3864 C   0  0  0  0  0  0  0  0  0  0  0  0
   -1.3952   -1.2839   -0.3441 C   0  0  0  0  0  0  0  0  0  0  0  0
   -0.1063   -1.4946    0.4786 C   0  0  0  0  0  0  0  0  0  0  0  0
    0.7423   -0.2183    0.0608 C   0  0  0  0  0  0  0  0  0  0  0  0
    1.5551   -1.0958   -0.9735 C   0  0  0  0  0  0  0  0  0  0  0  0
    2.9090   -1.3398   -0.2360 C   0  0  0  0  0  0  0  0  0  0  0  0
    3.2933    0.0670   -0.2196 C   0  0  0  0  0  0  0  0  0  0  0  0
    2.0304    0.6007    0.5464 C   0  0  0  0  0  0  0  0  0  0  0  0
    2.0309    2.1265    0.3963 C   0  0  0  0  0  0  0  0  0  0  0  0
    0.7754    2.9489    0.4567 C   0  0  0  0  0  0  0  0  0  0  0  0
   -0.3796    2.3126   -0.2689 C   0  0  0  0  0  0  0  0  0  0  0  0
   -0.4996    0.8426    0.1586 C   0  0  0  0  0  0  0  0  0  0  0  0
   -1.7026    0.2104   -0.4954 C   0  0  0  0  0  0  0  0  0  0  0  0
   -3.1202    0.3723    0.1046 C   0  0  0  0  0  0  0  0  0  0  0  0
  1  2  1  0  0  0  0
  1 15  1  0  0  0  0
  2  3  1  0  0  0  0
  3  4  1  0  0  0  0
  3 14  1  0  0  0  0
  4  5  1  0  0  0  0
  5  6  1  0  0  0  0
  5 10  1  0  0  0  0
  5 13  1  0  0  0  0
  6  7  1  0  0  0  0
  7  8  1  0  0  0  0
  8  9  1  0  0  0  0
  9 10  1  0  0  0  0
 10 11  1  0  0  0  0
 11 12  1  0  0  0  0
 12 13  1  0  0  0  0
 13 14  1  0  0  0  0
 14 15  1  0  0  0  0
M  END
