
 OpenBabel03222517393D

 14 20  0  0  0  0  0  0  0  0999 V2000
    0.5990    1.2274    0.7618 C   0  0  0  0  0  0  0  0  0  0  0  0
   -0.7023    0.6783    0.3028 C   0  0  0  0  0  0  0  0  0  0  0  0
   -0.7496   -0.7941    0.4573 C   0  0  0  0  0  0  0  0  0  0  0  0
   -0.3937   -0.2538   -0.8619 C   0  0  0  0  0  0  0  0  0  0  0  0
    1.2798   -0.3159   -1.0538 C   0  0  0  0  0  0  0  0  0  0  0  0
    1.4423   -0.0103    0.4050 C   0  0  0  0  0  0  0  0  0  0  0  0
    0.5535   -1.3094    0.9007 C   0  0  0  0  0  0  0  0  0  0  0  0
    0.7920   -2.6790    0.1414 C   0  0  0  0  0  0  0  0  0  0  0  0
    2.3009   -2.7307    0.0312 C   0  0  0  0  0  0  0  0  0  0  0  0
    2.5610   -4.1036   -0.6897 C   0  0  0  0  0  0  0  0  0  0  0  0
    1.7343   -3.7952   -1.8983 C   0  0  0  0  0  0  0  0  0  0  0  0
    0.6199   -2.9139   -1.4593 C   0  0  0  0  0  0  0  0  0  0  0  0
    1.8029   -2.3777   -2.1732 C   0  0  0  0  0  0  0  0  0  0  0  0
    2.3694   -1.5603   -1.1021 C   0  0  0  0  0  0  0  0  0  0  0  0
  1  2  1  0  0  0  0
  1  6  1  0  0  0  0
  2  3  1  0  0  0  0
  2  4  1  0  0  0  0
  3  4  1  0  0  0  0
  3  7  1  0  0  0  0
  4  5  1  0  0  0  0
  5  6  1  0  0  0  0
  5 14  1  0  0  0  0
  6  7  1  0  0  0  0
  7  8  1  0  0  0  0
  8  9  1  0  0  0  0
  8 12  1  0  0  0  0
  9 10  1  0  0  0  0
  9 14  1  0  0  0  0
 10 11  1  0  0  0  0
 11 12  1  0  0  0  0
 11 13  1  0  0  0  0
 12 13  1  0  0  0  0
 13 14  1  0  0  0  0
M  END
