
 OpenBabel03222517373D

 14 16  0  0  0  0  0  0  0  0999 V2000
    2.9179   -0.0352    0.0905 C   0  0  0  0  0  0  0  0  0  0  0  0
    2.0927   -1.2978    0.3896 C   0  0  0  0  0  0  0  0  0  0  0  0
    0.7760   -0.9194    1.0316 C   0  0  0  0  0  0  0  0  0  0  0  0
    0.0733    0.1232    0.1526 C   0  0  0  0  0  0  0  0  0  0  0  0
    0.8455    1.4356    0.1016 C   0  0  0  0  0  0  0  0  0  0  0  0
    2.1913    1.1533   -0.5773 C   0  0  0  0  0  0  0  0  0  0  0  0
   -1.3798    0.1967    0.6269 C   0  0  0  0  0  0  0  0  0  0  0  0
   -2.0236   -0.4378   -0.5974 C   0  0  0  0  0  0  0  0  0  0  0  0
   -3.4403   -0.9523   -0.5502 C   0  0  0  0  0  0  0  0  0  0  0  0
   -3.7825   -0.9414   -2.0624 C   0  0  0  0  0  0  0  0  0  0  0  0
   -2.8025   -1.7683   -2.9108 C   0  0  0  0  0  0  0  0  0  0  0  0
   -1.8865   -2.5549   -1.9898 C   0  0  0  0  0  0  0  0  0  0  0  0
   -1.0243   -1.5324   -1.1820 C   0  0  0  0  0  0  0  0  0  0  0  0
   -0.0241   -0.3828   -1.3110 C   0  0  0  0  0  0  0  0  0  0  0  0
  1  2  1  0  0  0  0
  1  6  1  0  0  0  0
  2  3  1  0  0  0  0
  3  4  1  0  0  0  0
  4  5  1  0  0  0  0
  4  7  1  0  0  0  0
  4 14  1  0  0  0  0
  5  6  1  0  0  0  0
  7  8  1  0  0  0  0
  8  9  1  0  0  0  0
  9 10  1  0  0  0  0
  9 14  1  0  0  0  0
 10 11  1  0  0  0  0
 11 12  1  0  0  0  0
 12 13  1  0  0  0  0
 13 14  1  0  0  0  0
M  END
