
 OpenBabel03222517363D

 11 13  0  0  0  0  0  0  0  0999 V2000
    1.2600   -0.9083    0.6003 C   0  0  0  0  0  0  0  0  0  0  0  0
    2.2693    0.1645    0.3251 C   0  0  0  0  0  0  0  0  0  0  0  0
    1.5315    1.4978    0.4716 C   0  0  0  0  0  0  0  0  0  0  0  0
    0.2395    1.5553   -0.4193 C   0  0  0  0  0  0  0  0  0  0  0  0
   -1.1158    0.7398   -0.2172 C   0  0  0  0  0  0  0  0  0  0  0  0
   -1.6975    0.1863   -1.5403 C   0  0  0  0  0  0  0  0  0  0  0  0
   -1.8160   -1.1776   -0.7521 C   0  0  0  0  0  0  0  0  0  0  0  0
   -1.5513   -0.4983    0.5468 C   0  0  0  0  0  0  0  0  0  0  0  0
   -0.9060   -1.3714    1.6380 C   0  0  0  0  0  0  0  0  0  0  0  0
    0.3735   -0.5896    1.8410 C   0  0  0  0  0  0  0  0  0  0  0  0
   -2.1550    0.8427    0.8925 C   0  0  0  0  0  0  0  0  0  0  0  0
  1  2  1  0  0  0  0
  1  8  1  0  0  0  0
  2  3  1  0  0  0  0
  3  4  1  0  0  0  0
  4  5  1  0  0  0  0
  5  6  1  0  0  0  0
  5  9  1  0  0  0  0
  6  7  1  0  0  0  0
  6  9  1  0  0  0  0
  7  8  1  0  0  0  0
  9 10  1  0  0  0  0
  9 11  1  0  0  0  0
 10 11  1  0  0  0  0
M  END
