
 OpenBabel03222517363D

 12 14  0  0  0  0  0  0  0  0999 V2000
    2.6167    0.1375    0.7672 C   0  0  0  0  0  0  0  0  0  0  0  0
    2.2756   -1.3492    0.6388 C   0  0  0  0  0  0  0  0  0  0  0  0
    0.8763   -1.3008    1.1180 C   0  0  0  0  0  0  0  0  0  0  0  0
    0.2768   -0.1454    0.2612 C   0  0  0  0  0  0  0  0  0  0  0  0
    1.1959    0.8389    1.0916 C   0  0  0  0  0  0  0  0  0  0  0  0
    0.6044    0.7583   -0.9789 C   0  0  0  0  0  0  0  0  0  0  0  0
   -0.7688    1.4347   -1.2775 C   0  0  0  0  0  0  0  0  0  0  0  0
   -2.2176    1.0672   -0.3827 C   0  0  0  0  0  0  0  0  0  0  0  0
   -2.4176   -0.4176   -0.3310 C   0  0  0  0  0  0  0  0  0  0  0  0
   -1.0103   -0.9622   -0.3893 C   0  0  0  0  0  0  0  0  0  0  0  0
   -0.8157   -0.9743   -1.9543 C   0  0  0  0  0  0  0  0  0  0  0  0
   -1.1416    0.5096   -2.4040 C   0  0  0  0  0  0  0  0  0  0  0  0
  1  2  1  0  0  0  0
  1  6  1  0  0  0  0
  2  3  1  0  0  0  0
  3  4  1  0  0  0  0
  4  5  1  0  0  0  0
  4  7  1  0  0  0  0
  4 10  1  0  0  0  0
  5  6  1  0  0  0  0
  7  8  1  0  0  0  0
  8  9  1  0  0  0  0
  9 10  1  0  0  0  0
 10 11  1  0  0  0  0
 10 12  1  0  0  0  0
 11 12  1  0  0  0  0
M  END
