
 OpenBabel03222517363D

 11 14  0  0  0  0  0  0  0  0999 V2000
    2.6777    0.6578   -0.3490 C   0  0  0  0  0  0  0  0  0  0  0  0
    2.2354   -0.7889   -0.1200 C   0  0  0  0  0  0  0  0  0  0  0  0
    0.6927   -0.8593   -0.3230 C   0  0  0  0  0  0  0  0  0  0  0  0
   -0.1325   -0.8535   -1.6480 C   0  0  0  0  0  0  0  0  0  0  0  0
   -1.2490    0.2602   -1.4782 C   0  0  0  0  0  0  0  0  0  0  0  0
   -2.5432   -0.1398   -0.7471 C   0  0  0  0  0  0  0  0  0  0  0  0
   -2.3847    0.3055    0.7371 C   0  0  0  0  0  0  0  0  0  0  0  0
   -0.9571    0.6864    0.9439 C   0  0  0  0  0  0  0  0  0  0  0  0
   -0.7143    1.1652   -0.4381 C   0  0  0  0  0  0  0  0  0  0  0  0
    0.3630    0.5083    0.2069 C   0  0  0  0  0  0  0  0  0  0  0  0
    1.4831    1.4849    0.0251 C   0  0  0  0  0  0  0  0  0  0  0  0
  1  2  1  0  0  0  0
  1 10  1  0  0  0  0
  2  3  1  0  0  0  0
  3  4  1  0  0  0  0
  3 11  1  0  0  0  0
  4  5  1  0  0  0  0
  5  6  1  0  0  0  0
  5 11  1  0  0  0  0
  6  7  1  0  0  0  0
  7  8  1  0  0  0  0
  8  9  1  0  0  0  0
  8 11  1  0  0  0  0
  9 10  1  0  0  0  0
 10 11  1  0  0  0  0
M  END
