
 OpenBabel03222517383D

 12 16  0  0  0  0  0  0  0  0999 V2000
   -2.4689   -0.4927   -0.6971 C   0  0  0  0  0  0  0  0  0  0  0  0
   -1.7048   -1.7453   -0.1688 C   0  0  0  0  0  0  0  0  0  0  0  0
   -0.5148   -1.1678    0.7369 C   0  0  0  0  0  0  0  0  0  0  0  0
   -0.6854   -0.0940   -0.1687 C   0  0  0  0  0  0  0  0  0  0  0  0
   -1.9429    0.4963    0.2632 C   0  0  0  0  0  0  0  0  0  0  0  0
   -0.8923    1.6151    0.1429 C   0  0  0  0  0  0  0  0  0  0  0  0
    0.1761    2.8719    0.5003 C   0  0  0  0  0  0  0  0  0  0  0  0
    2.0382    3.0962    0.1815 C   0  0  0  0  0  0  0  0  0  0  0  0
    1.7364    1.8028    0.1438 C   0  0  0  0  0  0  0  0  0  0  0  0
    0.6989    1.0445   -0.6065 C   0  0  0  0  0  0  0  0  0  0  0  0
    0.0373    1.2036    0.7462 C   0  0  0  0  0  0  0  0  0  0  0  0
    0.5040    0.0702    0.4233 C   0  0  0  0  0  0  0  0  0  0  0  0
  1  2  1  0  0  0  0
  1 10  1  0  0  0  0
  2  3  1  0  0  0  0
  3  4  1  0  0  0  0
  3 11  1  0  0  0  0
  4  5  1  0  0  0  0
  4 12  1  0  0  0  0
  5  6  1  0  0  0  0
  5 10  1  0  0  0  0
  6  7  1  0  0  0  0
  7  8  1  0  0  0  0
  8  9  1  0  0  0  0
  8 12  1  0  0  0  0
  9 10  1  0  0  0  0
  9 11  1  0  0  0  0
 11 12  1  0  0  0  0
M  END
