
 OpenBabel03222517363D

 10 12  0  0  0  0  0  0  0  0999 V2000
    1.3915    0.4248    0.6295 C   0  0  0  0  0  0  0  0  0  0  0  0
    0.8246    1.7835    0.1872 C   0  0  0  0  0  0  0  0  0  0  0  0
    0.8884    1.6870   -1.3355 C   0  0  0  0  0  0  0  0  0  0  0  0
    0.4269    0.2332   -1.5581 C   0  0  0  0  0  0  0  0  0  0  0  0
    0.3063   -0.3538   -0.0283 C   0  0  0  0  0  0  0  0  0  0  0  0
   -0.7902   -0.4530   -2.1960 C   0  0  0  0  0  0  0  0  0  0  0  0
    0.2262   -1.6984   -2.3273 C   0  0  0  0  0  0  0  0  0  0  0  0
    1.1845   -0.5871   -2.6317 C   0  0  0  0  0  0  0  0  0  0  0  0
    1.5676   -0.5107   -4.0800 C   0  0  0  0  0  0  0  0  0  0  0  0
    2.6009   -0.4760   -3.0290 C   0  0  0  0  0  0  0  0  0  0  0  0
  1  2  1  0  0  0  0
  1  5  1  0  0  0  0
  2  3  1  0  0  0  0
  3  4  1  0  0  0  0
  4  5  1  0  0  0  0
  4  6  1  0  0  0  0
  4  8  1  0  0  0  0
  6  7  1  0  0  0  0
  7  8  1  0  0  0  0
  8  9  1  0  0  0  0
  8 10  1  0  0  0  0
  9 10  1  0  0  0  0
M  END
