
 OpenBabel03222517363D

 12 15  0  0  0  0  0  0  0  0999 V2000
    1.9227    0.3161   -0.4474 C   0  0  0  0  0  0  0  0  0  0  0  0
    0.8321    1.3053   -0.9566 C   0  0  0  0  0  0  0  0  0  0  0  0
    0.8508    1.0135   -2.4332 C   0  0  0  0  0  0  0  0  0  0  0  0
   -0.2366    1.4149   -3.3743 C   0  0  0  0  0  0  0  0  0  0  0  0
   -0.2714    0.2571   -4.3718 C   0  0  0  0  0  0  0  0  0  0  0  0
    0.0868   -1.0406   -3.6103 C   0  0  0  0  0  0  0  0  0  0  0  0
   -0.8725   -1.7252   -2.5703 C   0  0  0  0  0  0  0  0  0  0  0  0
    0.1744   -1.5261   -1.4903 C   0  0  0  0  0  0  0  0  0  0  0  0
    1.1978   -2.5857   -1.0204 C   0  0  0  0  0  0  0  0  0  0  0  0
    2.5758   -2.0211   -1.3375 C   0  0  0  0  0  0  0  0  0  0  0  0
    2.2851   -0.5914   -1.6963 C   0  0  0  0  0  0  0  0  0  0  0  0
    0.9585   -0.5191   -2.4113 C   0  0  0  0  0  0  0  0  0  0  0  0
  1  2  1  0  0  0  0
  1 11  1  0  0  0  0
  2  3  1  0  0  0  0
  3  4  1  0  0  0  0
  3 12  1  0  0  0  0
  4  5  1  0  0  0  0
  5  6  1  0  0  0  0
  6  7  1  0  0  0  0
  6 12  1  0  0  0  0
  7  8  1  0  0  0  0
  8  9  1  0  0  0  0
  8 12  1  0  0  0  0
  9 10  1  0  0  0  0
 10 11  1  0  0  0  0
 11 12  1  0  0  0  0
M  END
