
 OpenBabel03222517373D

 12 14  0  0  0  0  0  0  0  0999 V2000
    0.5503    1.9368    0.3307 C   0  0  0  0  0  0  0  0  0  0  0  0
    1.6726    1.4611   -0.5962 C   0  0  0  0  0  0  0  0  0  0  0  0
    2.6019    0.5066    0.1512 C   0  0  0  0  0  0  0  0  0  0  0  0
    2.1756   -0.9001   -0.1910 C   0  0  0  0  0  0  0  0  0  0  0  0
    0.7193   -1.0340    0.2398 C   0  0  0  0  0  0  0  0  0  0  0  0
   -0.1289   -1.5491   -0.9743 C   0  0  0  0  0  0  0  0  0  0  0  0
   -1.4667   -1.7890   -0.2205 C   0  0  0  0  0  0  0  0  0  0  0  0
   -0.6374   -1.3092    0.9395 C   0  0  0  0  0  0  0  0  0  0  0  0
   -1.1973    0.1869    1.0958 C   0  0  0  0  0  0  0  0  0  0  0  0
   -0.8164    1.3126    0.0302 C   0  0  0  0  0  0  0  0  0  0  0  0
    0.3835   -2.8778    1.1927 C   0  0  0  0  0  0  0  0  0  0  0  0
    1.1397   -1.6760    1.7131 C   0  0  0  0  0  0  0  0  0  0  0  0
  1  2  1  0  0  0  0
  1 10  1  0  0  0  0
  2  3  1  0  0  0  0
  3  4  1  0  0  0  0
  4  5  1  0  0  0  0
  5  6  1  0  0  0  0
  5  8  1  0  0  0  0
  5 12  1  0  0  0  0
  6  7  1  0  0  0  0
  7  8  1  0  0  0  0
  8  9  1  0  0  0  0
  8 11  1  0  0  0  0
  9 10  1  0  0  0  0
 11 12  1  0  0  0  0
M  END
