
 OpenBabel03222517363D

 12 14  0  0  0  0  0  0  0  0999 V2000
    2.3401   -0.6540   -0.4509 C   0  0  0  0  0  0  0  0  0  0  0  0
    1.7378   -1.7392    0.3736 C   0  0  0  0  0  0  0  0  0  0  0  0
    0.4507   -1.0586    0.9805 C   0  0  0  0  0  0  0  0  0  0  0  0
   -0.0468    0.3542    0.2013 C   0  0  0  0  0  0  0  0  0  0  0  0
   -1.4255    0.7039    1.4060 C   0  0  0  0  0  0  0  0  0  0  0  0
   -2.6079    0.4904    0.5369 C   0  0  0  0  0  0  0  0  0  0  0  0
   -1.5946    0.2592   -0.5704 C   0  0  0  0  0  0  0  0  0  0  0  0
   -2.2981    0.6382   -1.7970 C   0  0  0  0  0  0  0  0  0  0  0  0
   -1.2476    1.4370   -1.1659 C   0  0  0  0  0  0  0  0  0  0  0  0
    0.1146    1.4104   -0.0067 C   0  0  0  0  0  0  0  0  0  0  0  0
    1.0808    0.6672   -0.7386 C   0  0  0  0  0  0  0  0  0  0  0  0
    1.0971   -0.5966   -1.4898 C   0  0  0  0  0  0  0  0  0  0  0  0
  1  2  1  0  0  0  0
  1 11  1  0  0  0  0
  2  3  1  0  0  0  0
  3  4  1  0  0  0  0
  4  5  1  0  0  0  0
  4 10  1  0  0  0  0
  4 12  1  0  0  0  0
  5  6  1  0  0  0  0
  6  7  1  0  0  0  0
  7  8  1  0  0  0  0
  7 12  1  0  0  0  0
  8  9  1  0  0  0  0
  9 10  1  0  0  0  0
 10 11  1  0  0  0  0
M  END
