
 OpenBabel03222517373D

 11 14  0  0  0  0  0  0  0  0999 V2000
   -1.1617    0.8675   -1.4721 C   0  0  0  0  0  0  0  0  0  0  0  0
   -2.1942    0.8600   -0.1458 C   0  0  0  0  0  0  0  0  0  0  0  0
   -1.2839    1.2097    0.9771 C   0  0  0  0  0  0  0  0  0  0  0  0
   -0.1576    0.1465    0.8867 C   0  0  0  0  0  0  0  0  0  0  0  0
    0.9253    0.7457    0.0955 C   0  0  0  0  0  0  0  0  0  0  0  0
    0.5742    1.1209   -1.3255 C   0  0  0  0  0  0  0  0  0  0  0  0
    1.8273   -0.5450   -0.0601 C   0  0  0  0  0  0  0  0  0  0  0  0
    1.7701   -1.6725    1.0321 C   0  0  0  0  0  0  0  0  0  0  0  0
    0.2971   -1.4544    1.3423 C   0  0  0  0  0  0  0  0  0  0  0  0
   -0.4924   -1.1293    0.1122 C   0  0  0  0  0  0  0  0  0  0  0  0
    0.5452   -1.3157   -0.9236 C   0  0  0  0  0  0  0  0  0  0  0  0
  1  2  1  0  0  0  0
  1 10  1  0  0  0  0
  2  3  1  0  0  0  0
  3  4  1  0  0  0  0
  4  5  1  0  0  0  0
  4  9  1  0  0  0  0
  4 11  1  0  0  0  0
  5  6  1  0  0  0  0
  5 11  1  0  0  0  0
  6  7  1  0  0  0  0
  7  8  1  0  0  0  0
  8  9  1  0  0  0  0
  9 10  1  0  0  0  0
  9 11  1  0  0  0  0
M  END
