
 OpenBabel03222517363D

 11 13  0  0  0  0  0  0  0  0999 V2000
    2.2462    1.3722    0.0668 C   0  0  0  0  0  0  0  0  0  0  0  0
    0.8785    1.2536    0.3675 C   0  0  0  0  0  0  0  0  0  0  0  0
   -0.0857    1.3552   -0.7419 C   0  0  0  0  0  0  0  0  0  0  0  0
   -0.3190    3.1706   -1.0301 C   0  0  0  0  0  0  0  0  0  0  0  0
   -0.7004    3.6774    0.3490 C   0  0  0  0  0  0  0  0  0  0  0  0
   -0.2960    5.1098    0.3993 C   0  0  0  0  0  0  0  0  0  0  0  0
   -0.5410    5.5249    1.7899 C   0  0  0  0  0  0  0  0  0  0  0  0
   -0.0976    4.1467    2.5757 C   0  0  0  0  0  0  0  0  0  0  0  0
    0.0440    2.8297    1.5061 C   0  0  0  0  0  0  0  0  0  0  0  0
    1.8418    2.8015    0.8329 C   0  0  0  0  0  0  0  0  0  0  0  0
   -0.4692    0.8703    1.1627 C   0  0  0  0  0  0  0  0  0  0  0  0
  1  2  1  0  0  0  0
  1 11  1  0  0  0  0
  2  3  1  0  0  0  0
  3  4  1  0  0  0  0
  3 10  1  0  0  0  0
  4  5  1  0  0  0  0
  5  6  1  0  0  0  0
  6  7  1  0  0  0  0
  6  8  1  0  0  0  0
  6  9  1  0  0  0  0
  7  8  1  0  0  0  0
  9 10  1  0  0  0  0
 10 11  1  0  0  0  0
M  END
