
 OpenBabel03222517373D

 14 16  0  0  0  0  0  0  0  0999 V2000
   -2.8814   -1.1503    0.2598 C   0  0  0  0  0  0  0  0  0  0  0  0
   -2.1189   -2.3149   -0.3571 C   0  0  0  0  0  0  0  0  0  0  0  0
   -0.7592   -2.3653    0.3082 C   0  0  0  0  0  0  0  0  0  0  0  0
    0.0075   -1.1801   -0.3272 C   0  0  0  0  0  0  0  0  0  0  0  0
   -1.0466    0.3611    0.0399 C   0  0  0  0  0  0  0  0  0  0  0  0
   -2.4469    0.0985   -0.4799 C   0  0  0  0  0  0  0  0  0  0  0  0
   -0.7136    1.9892   -0.2843 C   0  0  0  0  0  0  0  0  0  0  0  0
    0.5745    2.5355    0.5106 C   0  0  0  0  0  0  0  0  0  0  0  0
    1.8776    2.0264   -0.1647 C   0  0  0  0  0  0  0  0  0  0  0  0
    1.3152    0.7895   -0.5628 C   0  0  0  0  0  0  0  0  0  0  0  0
    1.2959   -0.1736    0.9711 C   0  0  0  0  0  0  0  0  0  0  0  0
    1.6234   -1.3113    0.1845 C   0  0  0  0  0  0  0  0  0  0  0  0
    3.0895   -0.5423   -0.2387 C   0  0  0  0  0  0  0  0  0  0  0  0
    3.1343    1.2035    0.3575 C   0  0  0  0  0  0  0  0  0  0  0  0
  1  2  1  0  0  0  0
  1  6  1  0  0  0  0
  2  3  1  0  0  0  0
  3  4  1  0  0  0  0
  4  5  1  0  0  0  0
  4 12  1  0  0  0  0
  5  6  1  0  0  0  0
  5  7  1  0  0  0  0
  7  8  1  0  0  0  0
  8  9  1  0  0  0  0
  9 10  1  0  0  0  0
  9 14  1  0  0  0  0
 10 11  1  0  0  0  0
 11 12  1  0  0  0  0
 12 13  1  0  0  0  0
 13 14  1  0  0  0  0
M  END
