
 OpenBabel03222517353D

 10 13  0  0  0  0  0  0  0  0999 V2000
    0.3215   -0.1602    0.6824 C   0  0  0  0  0  0  0  0  0  0  0  0
    0.3392   -1.4383    1.2573 C   0  0  0  0  0  0  0  0  0  0  0  0
   -0.9502   -1.5636    0.1942 C   0  0  0  0  0  0  0  0  0  0  0  0
   -1.6792    0.1585   -0.1379 C   0  0  0  0  0  0  0  0  0  0  0  0
   -1.0024    1.6739    0.7642 C   0  0  0  0  0  0  0  0  0  0  0  0
    0.2363    1.5412    2.0814 C   0  0  0  0  0  0  0  0  0  0  0  0
    0.4304   -0.2383    2.5986 C   0  0  0  0  0  0  0  0  0  0  0  0
   -0.8835   -0.4860    3.1704 C   0  0  0  0  0  0  0  0  0  0  0  0
   -1.3271   -0.1467    1.8314 C   0  0  0  0  0  0  0  0  0  0  0  0
   -2.0574    0.8173    1.1095 C   0  0  0  0  0  0  0  0  0  0  0  0
  1  2  1  0  0  0  0
  1  9  1  0  0  0  0
  2  3  1  0  0  0  0
  2  7  1  0  0  0  0
  3  4  1  0  0  0  0
  4  5  1  0  0  0  0
  4 10  1  0  0  0  0
  5  6  1  0  0  0  0
  5 10  1  0  0  0  0
  6  7  1  0  0  0  0
  7  8  1  0  0  0  0
  8  9  1  0  0  0  0
  9 10  1  0  0  0  0
M  END
