
 OpenBabel03222517383D

 15 18  0  0  0  0  0  0  0  0999 V2000
   -1.5097    3.0015    0.1008 C   0  0  0  0  0  0  0  0  0  0  0  0
   -0.0330    3.1887   -0.1481 C   0  0  0  0  0  0  0  0  0  0  0  0
    0.5990    1.8997    0.4072 C   0  0  0  0  0  0  0  0  0  0  0  0
   -0.2875    0.8190   -0.2719 C   0  0  0  0  0  0  0  0  0  0  0  0
   -1.8377    0.7682    0.0012 C   0  0  0  0  0  0  0  0  0  0  0  0
   -2.1432    1.9545   -0.8953 C   0  0  0  0  0  0  0  0  0  0  0  0
   -2.2494   -0.6487   -0.1146 C   0  0  0  0  0  0  0  0  0  0  0  0
   -1.0300   -1.2292    0.7013 C   0  0  0  0  0  0  0  0  0  0  0  0
    0.1860   -2.1492    0.7961 C   0  0  0  0  0  0  0  0  0  0  0  0
    0.0244   -3.3500   -0.1098 C   0  0  0  0  0  0  0  0  0  0  0  0
    1.4893   -3.2614   -0.5382 C   0  0  0  0  0  0  0  0  0  0  0  0
    2.5508   -2.5643    0.4943 C   0  0  0  0  0  0  0  0  0  0  0  0
    2.6777   -1.2330   -0.2446 C   0  0  0  0  0  0  0  0  0  0  0  0
    1.2364   -0.8532    0.2254 C   0  0  0  0  0  0  0  0  0  0  0  0
   -0.0903   -0.6328   -0.4453 C   0  0  0  0  0  0  0  0  0  0  0  0
  1  2  1  0  0  0  0
  1  6  1  0  0  0  0
  2  3  1  0  0  0  0
  3  4  1  0  0  0  0
  4  5  1  0  0  0  0
  4 14  1  0  0  0  0
  5  6  1  0  0  0  0
  5  7  1  0  0  0  0
  7  8  1  0  0  0  0
  8  9  1  0  0  0  0
  8 15  1  0  0  0  0
  9 10  1  0  0  0  0
 10 11  1  0  0  0  0
 10 15  1  0  0  0  0
 11 12  1  0  0  0  0
 12 13  1  0  0  0  0
 13 14  1  0  0  0  0
 14 15  1  0  0  0  0
M  END
