
 OpenBabel03222517373D

 12 16  0  0  0  0  0  0  0  0999 V2000
    0.4494    0.5968   -2.0565 C   0  0  0  0  0  0  0  0  0  0  0  0
   -0.4202    1.6925   -0.6849 C   0  0  0  0  0  0  0  0  0  0  0  0
   -0.2408    1.9159    0.9234 C   0  0  0  0  0  0  0  0  0  0  0  0
   -0.9763    0.6874    0.8750 C   0  0  0  0  0  0  0  0  0  0  0  0
   -0.0254   -0.4516    1.1522 C   0  0  0  0  0  0  0  0  0  0  0  0
    0.3956   -1.4333   -0.3745 C   0  0  0  0  0  0  0  0  0  0  0  0
    0.0246   -2.0060   -1.9553 C   0  0  0  0  0  0  0  0  0  0  0  0
   -0.7011   -0.8202   -2.4734 C   0  0  0  0  0  0  0  0  0  0  0  0
   -1.9607   -0.8930   -1.4964 C   0  0  0  0  0  0  0  0  0  0  0  0
   -2.1290    0.5706   -0.6824 C   0  0  0  0  0  0  0  0  0  0  0  0
   -0.8601    0.1112   -0.4320 C   0  0  0  0  0  0  0  0  0  0  0  0
   -1.1277   -1.4196   -0.2970 C   0  0  0  0  0  0  0  0  0  0  0  0
  1  2  1  0  0  0  0
  1  6  1  0  0  0  0
  2  3  1  0  0  0  0
  3  4  1  0  0  0  0
  3 11  1  0  0  0  0
  3 12  1  0  0  0  0
  4  5  1  0  0  0  0
  5  6  1  0  0  0  0
  5 10  1  0  0  0  0
  6  7  1  0  0  0  0
  7  8  1  0  0  0  0
  7 12  1  0  0  0  0
  8  9  1  0  0  0  0
  9 10  1  0  0  0  0
 10 11  1  0  0  0  0
 11 12  1  0  0  0  0
M  END
