
 OpenBabel03222517353D

  7  9  0  0  0  0  0  0  0  0999 V2000
   -1.0462    0.0001   -1.1789 C   0  0  0  0  0  0  0  0  0  0  0  0
   -0.5937    1.0132   -0.0398 C   0  0  0  0  0  0  0  0  0  0  0  0
   -1.4119    0.0000    0.8845 C   0  0  0  0  0  0  0  0  0  0  0  0
   -0.5938   -1.0132   -0.0399 C   0  0  0  0  0  0  0  0  0  0  0  0
    0.9044   -0.7957    0.2677 C   0  0  0  0  0  0  0  0  0  0  0  0
    1.9199   -0.0002   -0.4922 C   0  0  0  0  0  0  0  0  0  0  0  0
    0.9045    0.7955    0.2677 C   0  0  0  0  0  0  0  0  0  0  0  0
  1  2  1  0  0  0  0
  1  4  1  0  0  0  0
  2  3  1  0  0  0  0
  2  7  1  0  0  0  0
  3  4  1  0  0  0  0
  4  5  1  0  0  0  0
  5  6  1  0  0  0  0
  5  7  1  0  0  0  0
  6  7  1  0  0  0  0
M  END
