
 OpenBabel03222517363D

 10 13  0  0  0  0  0  0  0  0999 V2000
    1.3401   -0.6489    1.1802 C   0  0  0  0  0  0  0  0  0  0  0  0
    1.4608    0.8415    0.7693 C   0  0  0  0  0  0  0  0  0  0  0  0
    0.4005    1.3232   -0.2391 C   0  0  0  0  0  0  0  0  0  0  0  0
   -1.0329    1.0566    0.2591 C   0  0  0  0  0  0  0  0  0  0  0  0
   -1.4846   -0.2608   -0.4225 C   0  0  0  0  0  0  0  0  0  0  0  0
   -1.0435   -1.4288    0.4548 C   0  0  0  0  0  0  0  0  0  0  0  0
    0.5064   -1.5137    0.2288 C   0  0  0  0  0  0  0  0  0  0  0  0
    0.7214   -0.9865   -1.1720 C   0  0  0  0  0  0  0  0  0  0  0  0
    0.5373    0.4688   -1.4791 C   0  0  0  0  0  0  0  0  0  0  0  0
   -0.5901   -0.4584   -1.6238 C   0  0  0  0  0  0  0  0  0  0  0  0
  1  2  1  0  0  0  0
  1  7  1  0  0  0  0
  2  3  1  0  0  0  0
  3  4  1  0  0  0  0
  3  9  1  0  0  0  0
  4  5  1  0  0  0  0
  5  6  1  0  0  0  0
  5 10  1  0  0  0  0
  6  7  1  0  0  0  0
  7  8  1  0  0  0  0
  8  9  1  0  0  0  0
  8 10  1  0  0  0  0
  9 10  1  0  0  0  0
M  END
