
 OpenBabel03222517363D

 11 13  0  0  0  0  0  0  0  0999 V2000
    2.6369   -0.3065   -1.4722 C   0  0  0  0  0  0  0  0  0  0  0  0
    2.5853    0.0671    0.3809 C   0  0  0  0  0  0  0  0  0  0  0  0
    0.9368    1.1338    0.8700 C   0  0  0  0  0  0  0  0  0  0  0  0
   -0.4404    2.0210    0.8275 C   0  0  0  0  0  0  0  0  0  0  0  0
   -1.9241    1.5380    0.5300 C   0  0  0  0  0  0  0  0  0  0  0  0
   -1.8868    0.0361    0.3141 C   0  0  0  0  0  0  0  0  0  0  0  0
   -0.7340   -0.4822   -0.5986 C   0  0  0  0  0  0  0  0  0  0  0  0
    0.5471   -0.8781    0.0864 C   0  0  0  0  0  0  0  0  0  0  0  0
    1.1607    0.6279   -0.9582 C   0  0  0  0  0  0  0  0  0  0  0  0
    2.2019    1.1488   -1.9119 C   0  0  0  0  0  0  0  0  0  0  0  0
   -0.0407    0.9274   -0.6750 C   0  0  0  0  0  0  0  0  0  0  0  0
  1  2  1  0  0  0  0
  1  9  1  0  0  0  0
  2  3  1  0  0  0  0
  3  4  1  0  0  0  0
  4  5  1  0  0  0  0
  4  7  1  0  0  0  0
  4 11  1  0  0  0  0
  5  6  1  0  0  0  0
  6  7  1  0  0  0  0
  7  8  1  0  0  0  0
  7 10  1  0  0  0  0
  8  9  1  0  0  0  0
 10 11  1  0  0  0  0
M  END
