
 OpenBabel03222517373D

 11 13  0  0  0  0  0  0  0  0999 V2000
   -1.9297   -0.0001   -0.6972 C   0  0  0  0  0  0  0  0  0  0  0  0
   -1.3361   -1.3152   -0.2049 C   0  0  0  0  0  0  0  0  0  0  0  0
   -0.0862   -1.2456    0.6765 C   0  0  0  0  0  0  0  0  0  0  0  0
   -0.0695    0.0016    1.5432 C   0  0  0  0  0  0  0  0  0  0  0  0
   -0.0671    1.2294    0.6493 C   0  0  0  0  0  0  0  0  0  0  0  0
   -1.2872    1.3117   -0.2681 C   0  0  0  0  0  0  0  0  0  0  0  0
    1.2182    1.2808   -0.1659 C   0  0  0  0  0  0  0  0  0  0  0  0
    1.6978   -0.0562   -0.7011 C   0  0  0  0  0  0  0  0  0  0  0  0
    3.1420    0.0091   -1.1356 C   0  0  0  0  0  0  0  0  0  0  0  0
    2.0410   -0.1254   -2.1804 C   0  0  0  0  0  0  0  0  0  0  0  0
    1.1839   -1.3549   -0.1612 C   0  0  0  0  0  0  0  0  0  0  0  0
  1  2  1  0  0  0  0
  1  6  1  0  0  0  0
  2  3  1  0  0  0  0
  3  4  1  0  0  0  0
  3 11  1  0  0  0  0
  4  5  1  0  0  0  0
  5  6  1  0  0  0  0
  5  7  1  0  0  0  0
  7  8  1  0  0  0  0
  8  9  1  0  0  0  0
  8 10  1  0  0  0  0
  8 11  1  0  0  0  0
  9 10  1  0  0  0  0
M  END
