
 OpenBabel03222517363D

 12 14  0  0  0  0  0  0  0  0999 V2000
   -2.7065   -0.1185    0.6031 C   0  0  0  0  0  0  0  0  0  0  0  0
   -1.9609    1.1570    1.1366 C   0  0  0  0  0  0  0  0  0  0  0  0
   -0.8784    0.4128    1.8076 C   0  0  0  0  0  0  0  0  0  0  0  0
   -0.3926   -0.3685    0.6299 C   0  0  0  0  0  0  0  0  0  0  0  0
   -1.5305   -1.3491    0.4161 C   0  0  0  0  0  0  0  0  0  0  0  0
   -0.7955    0.1737   -1.1716 C   0  0  0  0  0  0  0  0  0  0  0  0
    0.5629    0.4261   -1.7563 C   0  0  0  0  0  0  0  0  0  0  0  0
    1.6213    1.4626   -1.7435 C   0  0  0  0  0  0  0  0  0  0  0  0
    2.7594    0.6531   -0.5593 C   0  0  0  0  0  0  0  0  0  0  0  0
    1.5249   -0.0139    0.8372 C   0  0  0  0  0  0  0  0  0  0  0  0
    1.2862   -1.1250    0.1866 C   0  0  0  0  0  0  0  0  0  0  0  0
    0.8494    0.6878   -0.3258 C   0  0  0  0  0  0  0  0  0  0  0  0
  1  2  1  0  0  0  0
  1  6  1  0  0  0  0
  2  3  1  0  0  0  0
  3  4  1  0  0  0  0
  4  5  1  0  0  0  0
  4  7  1  0  0  0  0
  4 11  1  0  0  0  0
  5  6  1  0  0  0  0
  7  8  1  0  0  0  0
  8  9  1  0  0  0  0
  8 12  1  0  0  0  0
  9 10  1  0  0  0  0
 10 11  1  0  0  0  0
 11 12  1  0  0  0  0
M  END
