
 OpenBabel03222517383D

 15 18  0  0  0  0  0  0  0  0999 V2000
   -3.7072   -1.0682   -0.4149 C   0  0  0  0  0  0  0  0  0  0  0  0
   -2.8501   -2.1960    0.0559 C   0  0  0  0  0  0  0  0  0  0  0  0
   -1.5547   -2.1886   -0.7954 C   0  0  0  0  0  0  0  0  0  0  0  0
   -0.8362   -1.4428    0.2721 C   0  0  0  0  0  0  0  0  0  0  0  0
    0.6269   -1.4960    0.3484 C   0  0  0  0  0  0  0  0  0  0  0  0
    1.1600   -0.3086   -0.3785 C   0  0  0  0  0  0  0  0  0  0  0  0
    2.6454   -0.5015   -0.1185 C   0  0  0  0  0  0  0  0  0  0  0  0
    3.3070    0.7666   -0.2712 C   0  0  0  0  0  0  0  0  0  0  0  0
    3.2533    1.5440    1.0184 C   0  0  0  0  0  0  0  0  0  0  0  0
    2.5258    2.1279   -0.1853 C   0  0  0  0  0  0  0  0  0  0  0  0
    1.1772    2.3592    0.3061 C   0  0  0  0  0  0  0  0  0  0  0  0
    0.3908    1.1708   -0.1551 C   0  0  0  0  0  0  0  0  0  0  0  0
   -0.8716    1.1735    0.6959 C   0  0  0  0  0  0  0  0  0  0  0  0
   -1.6071    0.0413    0.1065 C   0  0  0  0  0  0  0  0  0  0  0  0
   -3.1418    0.1373    0.3375 C   0  0  0  0  0  0  0  0  0  0  0  0
  1  2  1  0  0  0  0
  1 15  1  0  0  0  0
  2  3  1  0  0  0  0
  3  4  1  0  0  0  0
  4  5  1  0  0  0  0
  4 14  1  0  0  0  0
  5  6  1  0  0  0  0
  6  7  1  0  0  0  0
  6 12  1  0  0  0  0
  7  8  1  0  0  0  0
  8  9  1  0  0  0  0
  8 10  1  0  0  0  0
  9 10  1  0  0  0  0
 10 11  1  0  0  0  0
 11 12  1  0  0  0  0
 12 13  1  0  0  0  0
 13 14  1  0  0  0  0
 14 15  1  0  0  0  0
M  END
