
 OpenBabel03222517353D

 11 13  0  0  0  0  0  0  0  0999 V2000
    2.6593    0.1289   -0.1698 C   0  0  0  0  0  0  0  0  0  0  0  0
    2.1737   -1.3064   -0.1619 C   0  0  0  0  0  0  0  0  0  0  0  0
    1.1652   -1.5264    0.9596 C   0  0  0  0  0  0  0  0  0  0  0  0
   -0.1747   -0.8193    0.7579 C   0  0  0  0  0  0  0  0  0  0  0  0
   -0.6448   -0.5772   -0.7116 C   0  0  0  0  0  0  0  0  0  0  0  0
   -2.1906   -0.5593   -0.6490 C   0  0  0  0  0  0  0  0  0  0  0  0
   -2.5959    0.8394   -0.2230 C   0  0  0  0  0  0  0  0  0  0  0  0
   -1.7578    1.2674    1.0018 C   0  0  0  0  0  0  0  0  0  0  0  0
   -0.2953    0.7447    0.9157 C   0  0  0  0  0  0  0  0  0  0  0  0
    0.1858    0.8395   -0.5627 C   0  0  0  0  0  0  0  0  0  0  0  0
    1.6805    1.0484   -0.8785 C   0  0  0  0  0  0  0  0  0  0  0  0
  1  2  1  0  0  0  0
  1 11  1  0  0  0  0
  2  3  1  0  0  0  0
  3  4  1  0  0  0  0
  4  5  1  0  0  0  0
  4  9  1  0  0  0  0
  5  6  1  0  0  0  0
  5 10  1  0  0  0  0
  6  7  1  0  0  0  0
  7  8  1  0  0  0  0
  8  9  1  0  0  0  0
  9 10  1  0  0  0  0
 10 11  1  0  0  0  0
M  END
