
 OpenBabel03222517363D

 11 13  0  0  0  0  0  0  0  0999 V2000
   -1.7643    0.3629    1.0983 C   0  0  0  0  0  0  0  0  0  0  0  0
   -0.9657    1.5780    0.4953 C   0  0  0  0  0  0  0  0  0  0  0  0
   -0.0164    1.0796   -0.6228 C   0  0  0  0  0  0  0  0  0  0  0  0
    1.4421    1.0671   -0.1423 C   0  0  0  0  0  0  0  0  0  0  0  0
    1.5005   -0.2259    0.5836 C   0  0  0  0  0  0  0  0  0  0  0  0
    0.6378   -1.1452   -0.3597 C   0  0  0  0  0  0  0  0  0  0  0  0
   -0.6449   -0.3231   -0.8362 C   0  0  0  0  0  0  0  0  0  0  0  0
   -1.7110   -0.7934    0.1458 C   0  0  0  0  0  0  0  0  0  0  0  0
   -1.6506    0.2448   -1.9598 C   0  0  0  0  0  0  0  0  0  0  0  0
   -0.9486    1.0563   -2.9420 C   0  0  0  0  0  0  0  0  0  0  0  0
    0.1106    1.6887   -2.0693 C   0  0  0  0  0  0  0  0  0  0  0  0
  1  2  1  0  0  0  0
  1  8  1  0  0  0  0
  2  3  1  0  0  0  0
  3  4  1  0  0  0  0
  3  7  1  0  0  0  0
  3 11  1  0  0  0  0
  4  5  1  0  0  0  0
  5  6  1  0  0  0  0
  6  7  1  0  0  0  0
  7  8  1  0  0  0  0
  7  9  1  0  0  0  0
  9 10  1  0  0  0  0
 10 11  1  0  0  0  0
M  END
