
 OpenBabel03222517363D

 13 15  0  0  0  0  0  0  0  0999 V2000
    2.2906   -0.6438    0.5202 C   0  0  0  0  0  0  0  0  0  0  0  0
    2.8172    0.5755   -0.2321 C   0  0  0  0  0  0  0  0  0  0  0  0
    2.1178    1.8361    0.2931 C   0  0  0  0  0  0  0  0  0  0  0  0
    0.7758    2.0570   -0.4370 C   0  0  0  0  0  0  0  0  0  0  0  0
   -0.5058    1.9910    0.3876 C   0  0  0  0  0  0  0  0  0  0  0  0
   -1.6605    2.2710   -0.5269 C   0  0  0  0  0  0  0  0  0  0  0  0
   -1.9285    1.1789    0.4510 C   0  0  0  0  0  0  0  0  0  0  0  0
   -2.6315   -0.0362   -0.2066 C   0  0  0  0  0  0  0  0  0  0  0  0
   -2.1155   -1.4375    0.1479 C   0  0  0  0  0  0  0  0  0  0  0  0
   -0.8294   -1.2352   -0.5002 C   0  0  0  0  0  0  0  0  0  0  0  0
   -0.7210   -2.5658    0.0190 C   0  0  0  0  0  0  0  0  0  0  0  0
    0.7825   -2.6886    0.3492 C   0  0  0  0  0  0  0  0  0  0  0  0
    1.7423   -1.7132   -0.4218 C   0  0  0  0  0  0  0  0  0  0  0  0
  1  2  1  0  0  0  0
  1 13  1  0  0  0  0
  2  3  1  0  0  0  0
  3  4  1  0  0  0  0
  4  5  1  0  0  0  0
  5  6  1  0  0  0  0
  5  7  1  0  0  0  0
  6  7  1  0  0  0  0
  7  8  1  0  0  0  0
  8  9  1  0  0  0  0
  9 10  1  0  0  0  0
  9 11  1  0  0  0  0
 10 11  1  0  0  0  0
 11 12  1  0  0  0  0
 12 13  1  0  0  0  0
M  END
