
 OpenBabel03222517383D

 13 16  0  0  0  0  0  0  0  0999 V2000
    1.2876    0.2805    0.4465 C   0  0  0  0  0  0  0  0  0  0  0  0
    0.5188    1.5853    0.4840 C   0  0  0  0  0  0  0  0  0  0  0  0
    0.8892    2.3278   -0.7544 C   0  0  0  0  0  0  0  0  0  0  0  0
    0.6025    1.3479   -2.2108 C   0  0  0  0  0  0  0  0  0  0  0  0
    0.9908   -0.0625   -1.9735 C   0  0  0  0  0  0  0  0  0  0  0  0
    0.5622   -0.6608   -0.4707 C   0  0  0  0  0  0  0  0  0  0  0  0
    2.3999    1.0731   -2.1509 C   0  0  0  0  0  0  0  0  0  0  0  0
    1.8496    2.5135   -3.3290 C   0  0  0  0  0  0  0  0  0  0  0  0
    0.9908    3.5954   -3.7183 C   0  0  0  0  0  0  0  0  0  0  0  0
    2.7075    4.1475   -3.2922 C   0  0  0  0  0  0  0  0  0  0  0  0
    3.4217    2.7767   -3.7545 C   0  0  0  0  0  0  0  0  0  0  0  0
    2.5551    2.7913   -4.8608 C   0  0  0  0  0  0  0  0  0  0  0  0
    2.2403    1.2787   -3.5447 C   0  0  0  0  0  0  0  0  0  0  0  0
  1  2  1  0  0  0  0
  1  6  1  0  0  0  0
  2  3  1  0  0  0  0
  3  4  1  0  0  0  0
  4  5  1  0  0  0  0
  4  9  1  0  0  0  0
  5  6  1  0  0  0  0
  5  7  1  0  0  0  0
  7  8  1  0  0  0  0
  7 13  1  0  0  0  0
  8  9  1  0  0  0  0
  9 10  1  0  0  0  0
 10 11  1  0  0  0  0
 10 12  1  0  0  0  0
 10 13  1  0  0  0  0
 11 12  1  0  0  0  0
M  END
