
 OpenBabel03222517383D

 12 16  0  0  0  0  0  0  0  0999 V2000
    1.2106    0.9422    0.2587 C   0  0  0  0  0  0  0  0  0  0  0  0
    0.3330    1.2835   -1.0607 C   0  0  0  0  0  0  0  0  0  0  0  0
    1.5670    2.0596   -1.4568 C   0  0  0  0  0  0  0  0  0  0  0  0
    0.4951    2.4858   -0.5651 C   0  0  0  0  0  0  0  0  0  0  0  0
   -0.7307    0.9411    0.3042 C   0  0  0  0  0  0  0  0  0  0  0  0
   -0.1042    0.7094    2.0017 C   0  0  0  0  0  0  0  0  0  0  0  0
    0.7753    2.0269    2.4758 C   0  0  0  0  0  0  0  0  0  0  0  0
    0.1811    3.3946    2.5238 C   0  0  0  0  0  0  0  0  0  0  0  0
   -0.9538    2.8138    1.5461 C   0  0  0  0  0  0  0  0  0  0  0  0
    0.1921    2.7297    0.6958 C   0  0  0  0  0  0  0  0  0  0  0  0
    1.4956    2.9315    0.9617 C   0  0  0  0  0  0  0  0  0  0  0  0
   -1.1698    2.2007   -0.1210 C   0  0  0  0  0  0  0  0  0  0  0  0
  1  2  1  0  0  0  0
  1 10  1  0  0  0  0
  2  3  1  0  0  0  0
  2 12  1  0  0  0  0
  3  4  1  0  0  0  0
  4  5  1  0  0  0  0
  4 11  1  0  0  0  0
  5  6  1  0  0  0  0
  5 12  1  0  0  0  0
  6  7  1  0  0  0  0
  7  8  1  0  0  0  0
  7 11  1  0  0  0  0
  8  9  1  0  0  0  0
  9 10  1  0  0  0  0
  9 12  1  0  0  0  0
 10 11  1  0  0  0  0
M  END
