
 OpenBabel03222517353D

  7  8  0  0  0  0  0  0  0  0999 V2000
   -1.3182    0.6815    0.8121 C   0  0  0  0  0  0  0  0  0  0  0  0
   -1.7292   -0.5651   -0.1318 C   0  0  0  0  0  0  0  0  0  0  0  0
   -0.2970   -0.7578   -0.3724 C   0  0  0  0  0  0  0  0  0  0  0  0
    1.0293   -1.2331   -0.6741 C   0  0  0  0  0  0  0  0  0  0  0  0
    1.6541   -0.0275    0.1566 C   0  0  0  0  0  0  0  0  0  0  0  0
    0.3837    1.0056    0.4920 C   0  0  0  0  0  0  0  0  0  0  0  0
   -0.0377    0.7872   -0.8900 C   0  0  0  0  0  0  0  0  0  0  0  0
  1  2  1  0  0  0  0
  1  7  1  0  0  0  0
  2  3  1  0  0  0  0
  3  4  1  0  0  0  0
  3  6  1  0  0  0  0
  4  5  1  0  0  0  0
  5  6  1  0  0  0  0
  6  7  1  0  0  0  0
M  END
