
 OpenBabel03222517383D

 13 16  0  0  0  0  0  0  0  0999 V2000
    2.7010   -0.5859    0.4783 C   0  0  0  0  0  0  0  0  0  0  0  0
    3.1546    0.6388   -0.2713 C   0  0  0  0  0  0  0  0  0  0  0  0
    2.3565    1.8268    0.2375 C   0  0  0  0  0  0  0  0  0  0  0  0
    0.9578    1.7345   -0.3632 C   0  0  0  0  0  0  0  0  0  0  0  0
    0.0364    0.7540    0.4612 C   0  0  0  0  0  0  0  0  0  0  0  0
   -0.1700   -0.9801    0.4581 C   0  0  0  0  0  0  0  0  0  0  0  0
    0.8891   -2.1166    0.3107 C   0  0  0  0  0  0  0  0  0  0  0  0
    2.0086   -1.5342   -0.4887 C   0  0  0  0  0  0  0  0  0  0  0  0
   -1.2326   -0.7039   -0.6193 C   0  0  0  0  0  0  0  0  0  0  0  0
   -2.6394   -0.7935   -0.1665 C   0  0  0  0  0  0  0  0  0  0  0  0
   -3.7255    0.1611   -0.5961 C   0  0  0  0  0  0  0  0  0  0  0  0
   -2.5992    0.6527    0.2821 C   0  0  0  0  0  0  0  0  0  0  0  0
   -1.2710    0.8258   -0.2977 C   0  0  0  0  0  0  0  0  0  0  0  0
  1  2  1  0  0  0  0
  1  8  1  0  0  0  0
  2  3  1  0  0  0  0
  3  4  1  0  0  0  0
  4  5  1  0  0  0  0
  5  6  1  0  0  0  0
  5 13  1  0  0  0  0
  6  7  1  0  0  0  0
  6  9  1  0  0  0  0
  7  8  1  0  0  0  0
  9 10  1  0  0  0  0
  9 13  1  0  0  0  0
 10 11  1  0  0  0  0
 10 12  1  0  0  0  0
 11 12  1  0  0  0  0
 12 13  1  0  0  0  0
M  END
