
 OpenBabel03222517373D

 12 15  0  0  0  0  0  0  0  0999 V2000
   -2.5657    0.9283   -0.0420 C   0  0  0  0  0  0  0  0  0  0  0  0
   -2.1335   -0.4562   -0.1160 C   0  0  0  0  0  0  0  0  0  0  0  0
   -0.9534   -0.1490    1.0069 C   0  0  0  0  0  0  0  0  0  0  0  0
   -0.8299    1.5169    1.1119 C   0  0  0  0  0  0  0  0  0  0  0  0
   -1.0994    1.5342   -0.3527 C   0  0  0  0  0  0  0  0  0  0  0  0
    0.2217    0.5819   -0.8029 C   0  0  0  0  0  0  0  0  0  0  0  0
    1.6622    0.5817   -0.4441 C   0  0  0  0  0  0  0  0  0  0  0  0
    2.8127    0.9911   -1.2366 C   0  0  0  0  0  0  0  0  0  0  0  0
    3.4643    0.2628    0.0417 C   0  0  0  0  0  0  0  0  0  0  0  0
    2.0745   -0.3132    1.0247 C   0  0  0  0  0  0  0  0  0  0  0  0
    2.1678   -1.2324   -0.1156 C   0  0  0  0  0  0  0  0  0  0  0  0
    0.3296   -0.4243    0.3335 C   0  0  0  0  0  0  0  0  0  0  0  0
  1  2  1  0  0  0  0
  1  5  1  0  0  0  0
  2  3  1  0  0  0  0
  3  4  1  0  0  0  0
  3 12  1  0  0  0  0
  4  5  1  0  0  0  0
  5  6  1  0  0  0  0
  6  7  1  0  0  0  0
  6 12  1  0  0  0  0
  7  8  1  0  0  0  0
  8  9  1  0  0  0  0
  8 10  1  0  0  0  0
  8 11  1  0  0  0  0
  9 10  1  0  0  0  0
 11 12  1  0  0  0  0
M  END
