
 OpenBabel03222517353D

  4  6  0  0  0  0  0  0  0  0999 V2000
    0.1101    0.7231   -0.5807 C   0  0  0  0  0  0  0  0  0  0  0  0
   -0.1096   -0.7223   -0.5820 C   0  0  0  0  0  0  0  0  0  0  0  0
   -0.6455    0.3431    0.5814 C   0  0  0  0  0  0  0  0  0  0  0  0
    0.6450   -0.3442    0.5813 C   0  0  0  0  0  0  0  0  0  0  0  0
  1  2  1  0  0  0  0
  1  3  1  0  0  0  0
  1  4  1  0  0  0  0
  2  3  1  0  0  0  0
  2  4  1  0  0  0  0
  3  4  1  0  0  0  0
M  END
