
 OpenBabel03222517373D

 11 14  0  0  0  0  0  0  0  0999 V2000
   -1.9072   -0.8910   -0.0438 C   0  0  0  0  0  0  0  0  0  0  0  0
   -2.0549    0.6098    0.0071 C   0  0  0  0  0  0  0  0  0  0  0  0
   -0.9277    1.3450    0.5684 C   0  0  0  0  0  0  0  0  0  0  0  0
    0.3484    1.5070   -0.1791 C   0  0  0  0  0  0  0  0  0  0  0  0
    1.0380    0.5205   -1.0979 C   0  0  0  0  0  0  0  0  0  0  0  0
    0.1267   -0.6081   -1.6253 C   0  0  0  0  0  0  0  0  0  0  0  0
   -0.5542   -1.4483   -0.5213 C   0  0  0  0  0  0  0  0  0  0  0  0
    0.3922   -1.6778    0.6696 C   0  0  0  0  0  0  0  0  0  0  0  0
    1.1767   -0.4252    1.0443 C   0  0  0  0  0  0  0  0  0  0  0  0
    2.0859   -0.0450   -0.1322 C   0  0  0  0  0  0  0  0  0  0  0  0
    0.3352    0.8204    1.2228 C   0  0  0  0  0  0  0  0  0  0  0  0
  1  2  1  0  0  0  0
  1  7  1  0  0  0  0
  2  3  1  0  0  0  0
  3  4  1  0  0  0  0
  3 11  1  0  0  0  0
  4  5  1  0  0  0  0
  4 11  1  0  0  0  0
  5  6  1  0  0  0  0
  5 10  1  0  0  0  0
  6  7  1  0  0  0  0
  7  8  1  0  0  0  0
  8  9  1  0  0  0  0
  9 10  1  0  0  0  0
  9 11  1  0  0  0  0
M  END
