
 OpenBabel03222517353D

 13 14  0  0  0  0  0  0  0  0999 V2000
    2.3040   -0.6309    0.4897 C   0  0  0  0  0  0  0  0  0  0  0  0
    2.8718    0.5751   -0.2581 C   0  0  0  0  0  0  0  0  0  0  0  0
    2.2406    1.8779    0.2362 C   0  0  0  0  0  0  0  0  0  0  0  0
    0.9194    2.1541   -0.5053 C   0  0  0  0  0  0  0  0  0  0  0  0
   -0.3147    1.9933    0.3848 C   0  0  0  0  0  0  0  0  0  0  0  0
   -1.4912    1.2612   -0.3099 C   0  0  0  0  0  0  0  0  0  0  0  0
   -2.6539    1.2684    0.7424 C   0  0  0  0  0  0  0  0  0  0  0  0
   -3.3707    0.3142   -0.2103 C   0  0  0  0  0  0  0  0  0  0  0  0
   -1.9883   -0.3635   -0.4555 C   0  0  0  0  0  0  0  0  0  0  0  0
   -0.9783   -1.2443    0.3697 C   0  0  0  0  0  0  0  0  0  0  0  0
   -0.5025   -2.7321    0.1208 C   0  0  0  0  0  0  0  0  0  0  0  0
    1.0473   -2.8186    0.2830 C   0  0  0  0  0  0  0  0  0  0  0  0
    1.8411   -1.7297   -0.4691 C   0  0  0  0  0  0  0  0  0  0  0  0
  1  2  1  0  0  0  0
  1 13  1  0  0  0  0
  2  3  1  0  0  0  0
  3  4  1  0  0  0  0
  4  5  1  0  0  0  0
  5  6  1  0  0  0  0
  6  7  1  0  0  0  0
  6 10  1  0  0  0  0
  7  8  1  0  0  0  0
  8  9  1  0  0  0  0
  9 10  1  0  0  0  0
 10 11  1  0  0  0  0
 11 12  1  0  0  0  0
 12 13  1  0  0  0  0
M  END
