
 OpenBabel03222517383D

 13 16  0  0  0  0  0  0  0  0999 V2000
   -0.8809    0.0431   -1.4990 C   0  0  0  0  0  0  0  0  0  0  0  0
   -1.8882   -1.0605   -1.0327 C   0  0  0  0  0  0  0  0  0  0  0  0
   -0.8262   -1.9591   -0.5043 C   0  0  0  0  0  0  0  0  0  0  0  0
   -0.0475   -1.0015    0.6553 C   0  0  0  0  0  0  0  0  0  0  0  0
   -0.8796   -0.6514    1.9018 C   0  0  0  0  0  0  0  0  0  0  0  0
   -0.3106    0.6507    2.2647 C   0  0  0  0  0  0  0  0  0  0  0  0
   -0.7576    2.0529    2.6415 C   0  0  0  0  0  0  0  0  0  0  0  0
   -0.6647    1.7291    1.1642 C   0  0  0  0  0  0  0  0  0  0  0  0
    0.4951    1.7623    0.3351 C   0  0  0  0  0  0  0  0  0  0  0  0
    1.1504    0.2879    0.2455 C   0  0  0  0  0  0  0  0  0  0  0  0
    1.8915    0.4691   -1.0448 C   0  0  0  0  0  0  0  0  0  0  0  0
    0.9019   -0.3803   -1.8029 C   0  0  0  0  0  0  0  0  0  0  0  0
    1.3511   -1.2030    1.0143 C   0  0  0  0  0  0  0  0  0  0  0  0
  1  2  1  0  0  0  0
  1  8  1  0  0  0  0
  2  3  1  0  0  0  0
  3  4  1  0  0  0  0
  4  5  1  0  0  0  0
  4  7  1  0  0  0  0
  4 13  1  0  0  0  0
  5  6  1  0  0  0  0
  6  7  1  0  0  0  0
  7  8  1  0  0  0  0
  7  9  1  0  0  0  0
  9 10  1  0  0  0  0
 10 11  1  0  0  0  0
 10 12  1  0  0  0  0
 11 12  1  0  0  0  0
 12 13  1  0  0  0  0
M  END
