
 OpenBabel03222517373D

 14 16  0  0  0  0  0  0  0  0999 V2000
   -2.4813    0.6481   -0.3433 C   0  0  0  0  0  0  0  0  0  0  0  0
   -2.2681   -0.8413   -0.5285 C   0  0  0  0  0  0  0  0  0  0  0  0
   -0.7419   -1.1819   -0.6445 C   0  0  0  0  0  0  0  0  0  0  0  0
    0.3172   -0.4865    0.6648 C   0  0  0  0  0  0  0  0  0  0  0  0
   -0.1446    0.9270    0.7778 C   0  0  0  0  0  0  0  0  0  0  0  0
   -1.6477    1.1711    0.8161 C   0  0  0  0  0  0  0  0  0  0  0  0
    0.5602    1.8720   -0.1677 C   0  0  0  0  0  0  0  0  0  0  0  0
    1.5972    1.3496   -1.2318 C   0  0  0  0  0  0  0  0  0  0  0  0
    2.2476    0.0272   -0.8485 C   0  0  0  0  0  0  0  0  0  0  0  0
    3.6873   -0.2251   -1.1063 C   0  0  0  0  0  0  0  0  0  0  0  0
    3.7812    0.1300    0.3369 C   0  0  0  0  0  0  0  0  0  0  0  0
    2.1792   -0.7234    1.2433 C   0  0  0  0  0  0  0  0  0  0  0  0
    1.5763   -1.9818    0.8434 C   0  0  0  0  0  0  0  0  0  0  0  0
    1.8419   -1.5578   -0.6438 C   0  0  0  0  0  0  0  0  0  0  0  0
  1  2  1  0  0  0  0
  1  6  1  0  0  0  0
  2  3  1  0  0  0  0
  3  4  1  0  0  0  0
  4  5  1  0  0  0  0
  4 13  1  0  0  0  0
  5  6  1  0  0  0  0
  5  7  1  0  0  0  0
  7  8  1  0  0  0  0
  8  9  1  0  0  0  0
  9 10  1  0  0  0  0
  9 14  1  0  0  0  0
 10 11  1  0  0  0  0
 11 12  1  0  0  0  0
 12 13  1  0  0  0  0
 13 14  1  0  0  0  0
M  END
