
 OpenBabel03222517373D

 14 15  0  0  0  0  0  0  0  0999 V2000
    2.0660   -0.9428    0.8129 C   0  0  0  0  0  0  0  0  0  0  0  0
    2.6320    0.1871   -0.1475 C   0  0  0  0  0  0  0  0  0  0  0  0
    2.3682    1.6649    0.3865 C   0  0  0  0  0  0  0  0  0  0  0  0
    1.2535    2.4095   -0.3523 C   0  0  0  0  0  0  0  0  0  0  0  0
   -0.0751    2.4024    0.4039 C   0  0  0  0  0  0  0  0  0  0  0  0
   -1.2853    1.9567   -0.4307 C   0  0  0  0  0  0  0  0  0  0  0  0
   -2.2834    1.2294    0.5041 C   0  0  0  0  0  0  0  0  0  0  0  0
   -2.8822    0.0750   -0.2630 C   0  0  0  0  0  0  0  0  0  0  0  0
   -1.7672   -0.9164   -0.7248 C   0  0  0  0  0  0  0  0  0  0  0  0
   -1.2624   -2.0180    0.2296 C   0  0  0  0  0  0  0  0  0  0  0  0
    0.0441   -2.8301    0.2425 C   0  0  0  0  0  0  0  0  0  0  0  0
    1.4891   -2.3878    0.5675 C   0  0  0  0  0  0  0  0  0  0  0  0
   -0.5554   -0.2742   -1.3290 C   0  0  0  0  0  0  0  0  0  0  0  0
   -0.9333    1.1443   -1.7198 C   0  0  0  0  0  0  0  0  0  0  0  0
  1  2  1  0  0  0  0
  1 13  1  0  0  0  0
  2  3  1  0  0  0  0
  3  4  1  0  0  0  0
  4  5  1  0  0  0  0
  5  6  1  0  0  0  0
  6  7  1  0  0  0  0
  6 14  1  0  0  0  0
  7  8  1  0  0  0  0
  8  9  1  0  0  0  0
  9 10  1  0  0  0  0
 10 11  1  0  0  0  0
 10 14  1  0  0  0  0
 11 12  1  0  0  0  0
 12 13  1  0  0  0  0
M  END
