
 OpenBabel03222517373D

 12 15  0  0  0  0  0  0  0  0999 V2000
   -0.1567    0.8290    1.6021 C   0  0  0  0  0  0  0  0  0  0  0  0
    1.1493    1.2323    1.0560 C   0  0  0  0  0  0  0  0  0  0  0  0
    1.0589    1.4552   -0.4663 C   0  0  0  0  0  0  0  0  0  0  0  0
    0.3091    0.2089   -1.4343 C   0  0  0  0  0  0  0  0  0  0  0  0
   -1.1707   -0.5786   -1.5766 C   0  0  0  0  0  0  0  0  0  0  0  0
   -1.8768   -0.0713   -0.3533 C   0  0  0  0  0  0  0  0  0  0  0  0
   -1.4342   -1.2243    0.5342 C   0  0  0  0  0  0  0  0  0  0  0  0
   -0.1640   -1.8966   -0.1625 C   0  0  0  0  0  0  0  0  0  0  0  0
   -0.9278   -2.2774   -1.3488 C   0  0  0  0  0  0  0  0  0  0  0  0
    0.9105   -1.0849   -0.9446 C   0  0  0  0  0  0  0  0  0  0  0  0
    1.9283   -0.8863    0.1001 C   0  0  0  0  0  0  0  0  0  0  0  0
    1.2005   -0.2232    1.3158 C   0  0  0  0  0  0  0  0  0  0  0  0
  1  2  1  0  0  0  0
  1  6  1  0  0  0  0
  2  3  1  0  0  0  0
  2 12  1  0  0  0  0
  3  4  1  0  0  0  0
  4  5  1  0  0  0  0
  4 11  1  0  0  0  0
  5  6  1  0  0  0  0
  6  7  1  0  0  0  0
  7  8  1  0  0  0  0
  8  9  1  0  0  0  0
  8 11  1  0  0  0  0
  8 12  1  0  0  0  0
  9 10  1  0  0  0  0
 10 11  1  0  0  0  0
M  END
