
 OpenBabel03222517353D

 11 12  0  0  0  0  0  0  0  0999 V2000
   -0.1153    2.1751    0.7629 C   0  0  0  0  0  0  0  0  0  0  0  0
    1.3608    1.7742   -0.2321 C   0  0  0  0  0  0  0  0  0  0  0  0
    2.3986    0.6129    0.2205 C   0  0  0  0  0  0  0  0  0  0  0  0
    1.8310   -0.8347    0.4869 C   0  0  0  0  0  0  0  0  0  0  0  0
    1.2886   -2.0180   -0.4801 C   0  0  0  0  0  0  0  0  0  0  0  0
   -0.2103   -1.9278   -1.2008 C   0  0  0  0  0  0  0  0  0  0  0  0
   -1.1819   -1.1635   -0.2436 C   0  0  0  0  0  0  0  0  0  0  0  0
   -2.3065   -0.1051   -0.0910 C   0  0  0  0  0  0  0  0  0  0  0  0
   -1.7106    1.2125    1.0221 C   0  0  0  0  0  0  0  0  0  0  0  0
   -0.2244   -0.1066   -0.1942 C   0  0  0  0  0  0  0  0  0  0  0  0
    0.5757   -0.3880    1.1115 C   0  0  0  0  0  0  0  0  0  0  0  0
  1  2  1  0  0  0  0
  1 10  1  0  0  0  0
  2  3  1  0  0  0  0
  3  4  1  0  0  0  0
  4  5  1  0  0  0  0
  5  6  1  0  0  0  0
  5 11  1  0  0  0  0
  6  7  1  0  0  0  0
  7  8  1  0  0  0  0
  8  9  1  0  0  0  0
  8 11  1  0  0  0  0
  9 10  1  0  0  0  0
M  END
