
 OpenBabel03222517363D

 15 16  0  0  0  0  0  0  0  0999 V2000
   -3.3450   -0.8940   -0.4086 C   0  0  0  0  0  0  0  0  0  0  0  0
   -2.2690   -1.6641    0.3280 C   0  0  0  0  0  0  0  0  0  0  0  0
   -1.2913   -2.2074   -0.6850 C   0  0  0  0  0  0  0  0  0  0  0  0
   -0.2401   -2.9482    0.0658 C   0  0  0  0  0  0  0  0  0  0  0  0
    0.8156   -1.9759    0.6150 C   0  0  0  0  0  0  0  0  0  0  0  0
    1.2772   -0.5880   -0.1385 C   0  0  0  0  0  0  0  0  0  0  0  0
    2.8546   -0.8598    0.0652 C   0  0  0  0  0  0  0  0  0  0  0  0
    3.8045    0.2347   -0.3116 C   0  0  0  0  0  0  0  0  0  0  0  0
    3.2805    1.4829    0.3768 C   0  0  0  0  0  0  0  0  0  0  0  0
    2.0820    1.8704   -0.4749 C   0  0  0  0  0  0  0  0  0  0  0  0
    0.9237    1.1094    0.2029 C   0  0  0  0  0  0  0  0  0  0  0  0
   -0.2074    2.2334    0.1237 C   0  0  0  0  0  0  0  0  0  0  0  0
   -1.5562    1.8841    0.6563 C   0  0  0  0  0  0  0  0  0  0  0  0
   -2.4660    1.4171   -0.4503 C   0  0  0  0  0  0  0  0  0  0  0  0
   -3.5004    0.4924    0.1740 C   0  0  0  0  0  0  0  0  0  0  0  0
  1  2  1  0  0  0  0
  1 15  1  0  0  0  0
  2  3  1  0  0  0  0
  3  4  1  0  0  0  0
  4  5  1  0  0  0  0
  5  6  1  0  0  0  0
  6  7  1  0  0  0  0
  6 12  1  0  0  0  0
  7  8  1  0  0  0  0
  8  9  1  0  0  0  0
  9 10  1  0  0  0  0
 10 11  1  0  0  0  0
 11 12  1  0  0  0  0
 12 13  1  0  0  0  0
 13 14  1  0  0  0  0
 14 15  1  0  0  0  0
M  END
