
 OpenBabel03222517373D

 14 16  0  0  0  0  0  0  0  0999 V2000
   -1.3097    2.8137    0.1423 C   0  0  0  0  0  0  0  0  0  0  0  0
    0.1038    3.1595   -0.1348 C   0  0  0  0  0  0  0  0  0  0  0  0
    0.9041    2.0801    0.6575 C   0  0  0  0  0  0  0  0  0  0  0  0
    0.2168    0.6349    0.3690 C   0  0  0  0  0  0  0  0  0  0  0  0
   -1.6250    0.6719    0.1563 C   0  0  0  0  0  0  0  0  0  0  0  0
   -1.7386    1.7275   -0.8645 C   0  0  0  0  0  0  0  0  0  0  0  0
   -2.4441   -0.5611   -0.0586 C   0  0  0  0  0  0  0  0  0  0  0  0
   -1.4317   -1.3413    0.7572 C   0  0  0  0  0  0  0  0  0  0  0  0
   -0.2340   -1.4663   -0.4622 C   0  0  0  0  0  0  0  0  0  0  0  0
   -0.0333   -2.8913   -0.6361 C   0  0  0  0  0  0  0  0  0  0  0  0
    1.2965   -2.5935   -0.3017 C   0  0  0  0  0  0  0  0  0  0  0  0
    1.2467   -0.9921    0.9134 C   0  0  0  0  0  0  0  0  0  0  0  0
    2.6547   -1.0615    0.6579 C   0  0  0  0  0  0  0  0  0  0  0  0
    1.7285   -0.5975   -0.6128 C   0  0  0  0  0  0  0  0  0  0  0  0
  1  2  1  0  0  0  0
  1  6  1  0  0  0  0
  2  3  1  0  0  0  0
  3  4  1  0  0  0  0
  4  5  1  0  0  0  0
  4 14  1  0  0  0  0
  5  6  1  0  0  0  0
  5  7  1  0  0  0  0
  7  8  1  0  0  0  0
  8  9  1  0  0  0  0
  9 10  1  0  0  0  0
 10 11  1  0  0  0  0
 10 14  1  0  0  0  0
 11 12  1  0  0  0  0
 12 13  1  0  0  0  0
 13 14  1  0  0  0  0
M  END
