
 OpenBabel03222517353D

  7  9  0  0  0  0  0  0  0  0999 V2000
   -0.6825    0.8279   -0.3142 C   0  0  0  0  0  0  0  0  0  0  0  0
   -1.1618   -0.5546    0.1716 C   0  0  0  0  0  0  0  0  0  0  0  0
    0.1683   -0.8713    0.7596 C   0  0  0  0  0  0  0  0  0  0  0  0
    0.9294   -0.9070   -0.8514 C   0  0  0  0  0  0  0  0  0  0  0  0
    1.0118    0.5267   -0.3840 C   0  0  0  0  0  0  0  0  0  0  0  0
    1.4136   -0.0738    0.9278 C   0  0  0  0  0  0  0  0  0  0  0  0
    0.5321    0.5539    1.8835 C   0  0  0  0  0  0  0  0  0  0  0  0
  1  2  1  0  0  0  0
  1  7  1  0  0  0  0
  2  3  1  0  0  0  0
  3  4  1  0  0  0  0
  3  6  1  0  0  0  0
  4  5  1  0  0  0  0
  4  7  1  0  0  0  0
  5  6  1  0  0  0  0
  6  7  1  0  0  0  0
M  END
