
 OpenBabel03222517363D

 12 14  0  0  0  0  0  0  0  0999 V2000
   -2.8149    0.3814    0.2556 C   0  0  0  0  0  0  0  0  0  0  0  0
   -1.8064    1.3264    0.9194 C   0  0  0  0  0  0  0  0  0  0  0  0
   -0.6561    0.4931    1.4088 C   0  0  0  0  0  0  0  0  0  0  0  0
   -0.1384   -0.3416    0.2859 C   0  0  0  0  0  0  0  0  0  0  0  0
    0.1788    0.7152   -1.0431 C   0  0  0  0  0  0  0  0  0  0  0  0
    1.5880    0.8861   -1.0379 C   0  0  0  0  0  0  0  0  0  0  0  0
    1.9088   -0.6362   -0.9954 C   0  0  0  0  0  0  0  0  0  0  0  0
    2.2516   -0.7735    0.5253 C   0  0  0  0  0  0  0  0  0  0  0  0
    0.9776   -1.3416    0.9583 C   0  0  0  0  0  0  0  0  0  0  0  0
    0.4124   -1.6713   -1.4573 C   0  0  0  0  0  0  0  0  0  0  0  0
   -0.9345   -1.3275   -0.4782 C   0  0  0  0  0  0  0  0  0  0  0  0
   -2.2512   -0.5676   -0.8818 C   0  0  0  0  0  0  0  0  0  0  0  0
  1  2  1  0  0  0  0
  1 12  1  0  0  0  0
  2  3  1  0  0  0  0
  3  4  1  0  0  0  0
  4  5  1  0  0  0  0
  4  9  1  0  0  0  0
  4 11  1  0  0  0  0
  5  6  1  0  0  0  0
  6  7  1  0  0  0  0
  7  8  1  0  0  0  0
  7 10  1  0  0  0  0
  8  9  1  0  0  0  0
 10 11  1  0  0  0  0
 11 12  1  0  0  0  0
M  END
