
 OpenBabel03222517353D

 10 12  0  0  0  0  0  0  0  0999 V2000
   -1.4315    0.2540    1.1531 C   0  0  0  0  0  0  0  0  0  0  0  0
   -1.5286    1.7622    0.3769 C   0  0  0  0  0  0  0  0  0  0  0  0
   -0.3260    1.2530    0.0292 C   0  0  0  0  0  0  0  0  0  0  0  0
    0.6711    1.3056   -1.0020 C   0  0  0  0  0  0  0  0  0  0  0  0
    1.9851    0.8862   -0.4256 C   0  0  0  0  0  0  0  0  0  0  0  0
    1.7855   -0.5079    0.0692 C   0  0  0  0  0  0  0  0  0  0  0  0
    0.2338   -0.8716    0.8009 C   0  0  0  0  0  0  0  0  0  0  0  0
   -0.0101   -1.9070   -0.4352 C   0  0  0  0  0  0  0  0  0  0  0  0
   -1.3091   -1.4393   -0.5180 C   0  0  0  0  0  0  0  0  0  0  0  0
   -0.7517    0.1815   -1.1004 C   0  0  0  0  0  0  0  0  0  0  0  0
  1  2  1  0  0  0  0
  1 10  1  0  0  0  0
  2  3  1  0  0  0  0
  3  4  1  0  0  0  0
  3  8  1  0  0  0  0
  4  5  1  0  0  0  0
  5  6  1  0  0  0  0
  5  9  1  0  0  0  0
  6  7  1  0  0  0  0
  7  8  1  0  0  0  0
  8  9  1  0  0  0  0
  9 10  1  0  0  0  0
M  END
