
 OpenBabel03222517373D

 12 15  0  0  0  0  0  0  0  0999 V2000
    3.1300    0.2191    0.0282 C   0  0  0  0  0  0  0  0  0  0  0  0
    2.0110   -0.7236   -0.1553 C   0  0  0  0  0  0  0  0  0  0  0  0
    1.1155   -0.8018    1.0137 C   0  0  0  0  0  0  0  0  0  0  0  0
   -0.1865    0.2511    0.5466 C   0  0  0  0  0  0  0  0  0  0  0  0
    0.6642    1.3225   -0.0981 C   0  0  0  0  0  0  0  0  0  0  0  0
    1.8659    0.6547   -0.7435 C   0  0  0  0  0  0  0  0  0  0  0  0
   -1.6955    0.8017    1.1879 C   0  0  0  0  0  0  0  0  0  0  0  0
   -2.7904    0.4954    0.1432 C   0  0  0  0  0  0  0  0  0  0  0  0
   -2.2415   -0.7931   -0.4157 C   0  0  0  0  0  0  0  0  0  0  0  0
   -0.9390   -1.0125    0.3544 C   0  0  0  0  0  0  0  0  0  0  0  0
   -0.9414   -0.9751    2.1367 C   0  0  0  0  0  0  0  0  0  0  0  0
   -2.1679   -0.1680    2.3037 C   0  0  0  0  0  0  0  0  0  0  0  0
  1  2  1  0  0  0  0
  1  6  1  0  0  0  0
  2  3  1  0  0  0  0
  2  6  1  0  0  0  0
  3  4  1  0  0  0  0
  4  5  1  0  0  0  0
  4  7  1  0  0  0  0
  4 10  1  0  0  0  0
  5  6  1  0  0  0  0
  7  8  1  0  0  0  0
  7 12  1  0  0  0  0
  8  9  1  0  0  0  0
  9 10  1  0  0  0  0
 10 11  1  0  0  0  0
 11 12  1  0  0  0  0
M  END
