
 OpenBabel03222517373D

 13 16  0  0  0  0  0  0  0  0999 V2000
   -3.0747   -1.2120    0.5121 C   0  0  0  0  0  0  0  0  0  0  0  0
   -2.0655   -1.9113   -0.3669 C   0  0  0  0  0  0  0  0  0  0  0  0
   -0.8433   -1.4802    0.4254 C   0  0  0  0  0  0  0  0  0  0  0  0
    0.4396   -1.8376   -0.3488 C   0  0  0  0  0  0  0  0  0  0  0  0
    1.1612   -0.6018    0.1384 C   0  0  0  0  0  0  0  0  0  0  0  0
    2.3786   -0.0745   -0.4878 C   0  0  0  0  0  0  0  0  0  0  0  0
    2.9392    1.1218    0.3131 C   0  0  0  0  0  0  0  0  0  0  0  0
    2.2593    2.2623   -0.4318 C   0  0  0  0  0  0  0  0  0  0  0  0
    0.8605    1.6590   -0.7004 C   0  0  0  0  0  0  0  0  0  0  0  0
    1.7612    0.6308   -1.6975 C   0  0  0  0  0  0  0  0  0  0  0  0
    0.0511    0.4016   -0.2824 C   0  0  0  0  0  0  0  0  0  0  0  0
   -1.0851    0.1125    0.6373 C   0  0  0  0  0  0  0  0  0  0  0  0
   -2.5959    0.2261    0.3932 C   0  0  0  0  0  0  0  0  0  0  0  0
  1  2  1  0  0  0  0
  1 13  1  0  0  0  0
  2  3  1  0  0  0  0
  3  4  1  0  0  0  0
  3 13  1  0  0  0  0
  4  5  1  0  0  0  0
  5  6  1  0  0  0  0
  5 11  1  0  0  0  0
  6  7  1  0  0  0  0
  6 10  1  0  0  0  0
  7  8  1  0  0  0  0
  8  9  1  0  0  0  0
  9 10  1  0  0  0  0
  9 11  1  0  0  0  0
 11 12  1  0  0  0  0
 12 13  1  0  0  0  0
M  END
