
 OpenBabel03222517363D

 10 13  0  0  0  0  0  0  0  0999 V2000
   -2.5282    0.7374    0.2180 C   0  0  0  0  0  0  0  0  0  0  0  0
   -2.5282   -0.7373   -0.2180 C   0  0  0  0  0  0  0  0  0  0  0  0
   -1.2753   -1.4827    0.2916 C   0  0  0  0  0  0  0  0  0  0  0  0
   -0.0767   -0.7271   -0.2048 C   0  0  0  0  0  0  0  0  0  0  0  0
   -0.0767    0.7272    0.2049 C   0  0  0  0  0  0  0  0  0  0  0  0
   -1.2752    1.4827   -0.2916 C   0  0  0  0  0  0  0  0  0  0  0  0
    1.3424    0.9872   -0.2317 C   0  0  0  0  0  0  0  0  0  0  0  0
    2.2010   -0.2243   -0.7120 C   0  0  0  0  0  0  0  0  0  0  0  0
    1.3424   -0.9873    0.2317 C   0  0  0  0  0  0  0  0  0  0  0  0
    2.2011    0.2242    0.7118 C   0  0  0  0  0  0  0  0  0  0  0  0
  1  2  1  0  0  0  0
  1  6  1  0  0  0  0
  2  3  1  0  0  0  0
  3  4  1  0  0  0  0
  4  5  1  0  0  0  0
  4  9  1  0  0  0  0
  5  6  1  0  0  0  0
  5  7  1  0  0  0  0
  7  8  1  0  0  0  0
  7 10  1  0  0  0  0
  8  9  1  0  0  0  0
  8 10  1  0  0  0  0
  9 10  1  0  0  0  0
M  END
