
 OpenBabel03222517353D

 10 12  0  0  0  0  0  0  0  0999 V2000
    1.3858    0.0857    0.7820 C   0  0  0  0  0  0  0  0  0  0  0  0
    1.2844   -0.2893   -0.6342 C   0  0  0  0  0  0  0  0  0  0  0  0
    0.3421    0.8362   -0.1245 C   0  0  0  0  0  0  0  0  0  0  0  0
    0.5240    2.3168   -0.4615 C   0  0  0  0  0  0  0  0  0  0  0  0
    0.8306    2.4375   -1.9507 C   0  0  0  0  0  0  0  0  0  0  0  0
   -0.1422    1.5817   -2.7965 C   0  0  0  0  0  0  0  0  0  0  0  0
   -1.1313    2.2569   -3.6854 C   0  0  0  0  0  0  0  0  0  0  0  0
    0.0936    1.6077   -4.2831 C   0  0  0  0  0  0  0  0  0  0  0  0
   -0.6860    0.2625   -2.2299 C   0  0  0  0  0  0  0  0  0  0  0  0
   -0.9822    0.4014   -0.7087 C   0  0  0  0  0  0  0  0  0  0  0  0
  1  2  1  0  0  0  0
  1  3  1  0  0  0  0
  2  3  1  0  0  0  0
  3  4  1  0  0  0  0
  3 10  1  0  0  0  0
  4  5  1  0  0  0  0
  5  6  1  0  0  0  0
  6  7  1  0  0  0  0
  6  8  1  0  0  0  0
  6  9  1  0  0  0  0
  7  8  1  0  0  0  0
  9 10  1  0  0  0  0
M  END
