
 OpenBabel03222517363D

 13 14  0  0  0  0  0  0  0  0999 V2000
   -2.4407   -0.4946    0.5446 C   0  0  0  0  0  0  0  0  0  0  0  0
   -1.9084   -1.7816   -0.4292 C   0  0  0  0  0  0  0  0  0  0  0  0
   -0.6823   -2.6292    0.0950 C   0  0  0  0  0  0  0  0  0  0  0  0
    0.8796   -2.4918   -0.8613 C   0  0  0  0  0  0  0  0  0  0  0  0
    2.2571   -1.6046   -0.0570 C   0  0  0  0  0  0  0  0  0  0  0  0
    2.8478   -0.3167   -0.7057 C   0  0  0  0  0  0  0  0  0  0  0  0
    2.4534    0.8478    0.2492 C   0  0  0  0  0  0  0  0  0  0  0  0
    1.1187    1.1026   -0.3096 C   0  0  0  0  0  0  0  0  0  0  0  0
    0.3778    2.2707    0.2371 C   0  0  0  0  0  0  0  0  0  0  0  0
   -1.0636    2.1632   -0.3422 C   0  0  0  0  0  0  0  0  0  0  0  0
   -2.0658    1.2325    0.5414 C   0  0  0  0  0  0  0  0  0  0  0  0
    0.4030   -0.2350   -0.0808 C   0  0  0  0  0  0  0  0  0  0  0  0
    1.2790   -1.3646    0.8573 C   0  0  0  0  0  0  0  0  0  0  0  0
  1  2  1  0  0  0  0
  1 12  1  0  0  0  0
  2  3  1  0  0  0  0
  3  4  1  0  0  0  0
  4  5  1  0  0  0  0
  5  6  1  0  0  0  0
  5 13  1  0  0  0  0
  6  7  1  0  0  0  0
  7  8  1  0  0  0  0
  8  9  1  0  0  0  0
  9 10  1  0  0  0  0
  9 13  1  0  0  0  0
 10 11  1  0  0  0  0
 11 12  1  0  0  0  0
M  END
