
 OpenBabel03222517353D

  9 11  0  0  0  0  0  0  0  0999 V2000
    1.1618    0.4393   -0.9007 C   0  0  0  0  0  0  0  0  0  0  0  0
    1.4281    1.6651   -0.1291 C   0  0  0  0  0  0  0  0  0  0  0  0
    0.3568    0.9028    0.5492 C   0  0  0  0  0  0  0  0  0  0  0  0
   -0.8954    1.7139   -0.1163 C   0  0  0  0  0  0  0  0  0  0  0  0
   -1.7996    0.6540    0.1988 C   0  0  0  0  0  0  0  0  0  0  0  0
   -0.7778   -0.3172   -0.7047 C   0  0  0  0  0  0  0  0  0  0  0  0
   -0.7832   -1.5037    0.2463 C   0  0  0  0  0  0  0  0  0  0  0  0
    0.3174   -2.3607    0.7690 C   0  0  0  0  0  0  0  0  0  0  0  0
    0.5179   -1.0820    0.2244 C   0  0  0  0  0  0  0  0  0  0  0  0
  1  2  1  0  0  0  0
  1  9  1  0  0  0  0
  2  3  1  0  0  0  0
  3  4  1  0  0  0  0
  3  8  1  0  0  0  0
  4  5  1  0  0  0  0
  5  6  1  0  0  0  0
  6  7  1  0  0  0  0
  6  8  1  0  0  0  0
  7  8  1  0  0  0  0
  8  9  1  0  0  0  0
M  END
