
 OpenBabel03222517353D

  8 10  0  0  0  0  0  0  0  0999 V2000
   -0.8943   -0.7232    1.1926 C   0  0  0  0  0  0  0  0  0  0  0  0
   -1.4835   -0.3175   -0.1456 C   0  0  0  0  0  0  0  0  0  0  0  0
   -0.6329   -1.3403   -0.9627 C   0  0  0  0  0  0  0  0  0  0  0  0
    0.2662   -1.2743    0.3490 C   0  0  0  0  0  0  0  0  0  0  0  0
    1.3881   -0.2174    0.2185 C   0  0  0  0  0  0  0  0  0  0  0  0
    1.6971    1.2656    0.2658 C   0  0  0  0  0  0  0  0  0  0  0  0
    0.5684    0.9794   -0.6331 C   0  0  0  0  0  0  0  0  0  0  0  0
   -0.9528    1.0837   -0.4382 C   0  0  0  0  0  0  0  0  0  0  0  0
  1  2  1  0  0  0  0
  1  8  1  0  0  0  0
  2  3  1  0  0  0  0
  3  4  1  0  0  0  0
  3  5  1  0  0  0  0
  4  5  1  0  0  0  0
  5  6  1  0  0  0  0
  6  7  1  0  0  0  0
  6  8  1  0  0  0  0
  7  8  1  0  0  0  0
M  END
