
 OpenBabel03222517363D

 12 15  0  0  0  0  0  0  0  0999 V2000
   -1.3140    1.1144   -0.0801 C   0  0  0  0  0  0  0  0  0  0  0  0
   -1.6239   -0.3102   -0.6826 C   0  0  0  0  0  0  0  0  0  0  0  0
   -0.3229   -1.4867   -0.7140 C   0  0  0  0  0  0  0  0  0  0  0  0
    1.0073   -1.5730    0.5352 C   0  0  0  0  0  0  0  0  0  0  0  0
    2.1052   -1.8570    1.3873 C   0  0  0  0  0  0  0  0  0  0  0  0
    2.1198   -0.1803    0.9815 C   0  0  0  0  0  0  0  0  0  0  0  0
    1.9782    0.9957   -0.2319 C   0  0  0  0  0  0  0  0  0  0  0  0
    1.9232    0.2131   -1.4925 C   0  0  0  0  0  0  0  0  0  0  0  0
    0.6306   -0.6203   -1.4021 C   0  0  0  0  0  0  0  0  0  0  0  0
    0.4762   -0.5378    0.2690 C   0  0  0  0  0  0  0  0  0  0  0  0
    0.5549    0.0444    1.5742 C   0  0  0  0  0  0  0  0  0  0  0  0
   -0.5896    1.0640    1.3059 C   0  0  0  0  0  0  0  0  0  0  0  0
  1  2  1  0  0  0  0
  1 12  1  0  0  0  0
  2  3  1  0  0  0  0
  3  4  1  0  0  0  0
  3 10  1  0  0  0  0
  4  5  1  0  0  0  0
  4  9  1  0  0  0  0
  5  6  1  0  0  0  0
  6  7  1  0  0  0  0
  7  8  1  0  0  0  0
  7 12  1  0  0  0  0
  8  9  1  0  0  0  0
  9 10  1  0  0  0  0
 10 11  1  0  0  0  0
 11 12  1  0  0  0  0
M  END
