
 OpenBabel03222517373D

 12 14  0  0  0  0  0  0  0  0999 V2000
   -1.0012   -1.0777    0.0350 C   0  0  0  0  0  0  0  0  0  0  0  0
   -1.4271    0.3392    0.4663 C   0  0  0  0  0  0  0  0  0  0  0  0
   -0.2971    1.2952    0.1334 C   0  0  0  0  0  0  0  0  0  0  0  0
    0.8295    0.3472   -0.1612 C   0  0  0  0  0  0  0  0  0  0  0  0
    0.4724   -1.1035    0.3637 C   0  0  0  0  0  0  0  0  0  0  0  0
    2.5616    0.7318   -1.2040 C   0  0  0  0  0  0  0  0  0  0  0  0
    1.3919    0.1733   -1.6357 C   0  0  0  0  0  0  0  0  0  0  0  0
    1.2573   -1.2312   -2.3414 C   0  0  0  0  0  0  0  0  0  0  0  0
    0.3298   -1.1416   -3.5568 C   0  0  0  0  0  0  0  0  0  0  0  0
   -0.3602    0.1909   -3.4622 C   0  0  0  0  0  0  0  0  0  0  0  0
    0.6155    1.1117   -2.7165 C   0  0  0  0  0  0  0  0  0  0  0  0
    2.0328    0.5904    0.3440 C   0  0  0  0  0  0  0  0  0  0  0  0
  1  2  1  0  0  0  0
  1  5  1  0  0  0  0
  2  3  1  0  0  0  0
  3  4  1  0  0  0  0
  4  5  1  0  0  0  0
  4  6  1  0  0  0  0
  4 12  1  0  0  0  0
  6  7  1  0  0  0  0
  7  8  1  0  0  0  0
  7 11  1  0  0  0  0
  7 12  1  0  0  0  0
  8  9  1  0  0  0  0
  9 10  1  0  0  0  0
 10 11  1  0  0  0  0
M  END
