
 OpenBabel03222517363D

 12 14  0  0  0  0  0  0  0  0999 V2000
   -1.8603    0.5691    1.5290 C   0  0  0  0  0  0  0  0  0  0  0  0
   -0.9735    1.8233    1.1674 C   0  0  0  0  0  0  0  0  0  0  0  0
    0.2235    1.1648    1.4364 C   0  0  0  0  0  0  0  0  0  0  0  0
    0.2101    0.1908    0.2312 C   0  0  0  0  0  0  0  0  0  0  0  0
    1.7214   -0.4217    0.6003 C   0  0  0  0  0  0  0  0  0  0  0  0
    2.6758   -0.1439   -0.4947 C   0  0  0  0  0  0  0  0  0  0  0  0
    1.8158   -0.0342   -1.7482 C   0  0  0  0  0  0  0  0  0  0  0  0
    0.3134   -0.7169   -1.6402 C   0  0  0  0  0  0  0  0  0  0  0  0
   -1.1248   -0.6241   -2.0927 C   0  0  0  0  0  0  0  0  0  0  0  0
   -1.4254    0.0686   -0.7873 C   0  0  0  0  0  0  0  0  0  0  0  0
   -0.0228   -1.2372    0.0246 C   0  0  0  0  0  0  0  0  0  0  0  0
   -1.0585   -1.0939    1.3411 C   0  0  0  0  0  0  0  0  0  0  0  0
  1  2  1  0  0  0  0
  1 10  1  0  0  0  0
  2  3  1  0  0  0  0
  3  4  1  0  0  0  0
  4  5  1  0  0  0  0
  4  8  1  0  0  0  0
  4 12  1  0  0  0  0
  5  6  1  0  0  0  0
  6  7  1  0  0  0  0
  7  8  1  0  0  0  0
  8  9  1  0  0  0  0
  9 10  1  0  0  0  0
  9 11  1  0  0  0  0
 11 12  1  0  0  0  0
M  END
