
 OpenBabel03222517383D

 12 16  0  0  0  0  0  0  0  0999 V2000
   -1.8951   -0.3990   -0.7486 C   0  0  0  0  0  0  0  0  0  0  0  0
   -1.5439   -1.6705   -0.0653 C   0  0  0  0  0  0  0  0  0  0  0  0
   -0.2437   -1.3249    0.6467 C   0  0  0  0  0  0  0  0  0  0  0  0
    0.4290   -0.7746   -0.5669 C   0  0  0  0  0  0  0  0  0  0  0  0
   -0.5115    0.2640   -0.9824 C   0  0  0  0  0  0  0  0  0  0  0  0
    0.6212    1.0990    0.4596 C   0  0  0  0  0  0  0  0  0  0  0  0
    1.8025    1.3367   -0.4779 C   0  0  0  0  0  0  0  0  0  0  0  0
    1.0134    2.1867   -1.4358 C   0  0  0  0  0  0  0  0  0  0  0  0
   -0.1292    2.7456   -0.4453 C   0  0  0  0  0  0  0  0  0  0  0  0
   -0.4918    1.2768    0.8260 C   0  0  0  0  0  0  0  0  0  0  0  0
    1.1945    0.2169    0.1623 C   0  0  0  0  0  0  0  0  0  0  0  0
   -0.0053    0.0131    1.4950 C   0  0  0  0  0  0  0  0  0  0  0  0
  1  2  1  0  0  0  0
  1  5  1  0  0  0  0
  2  3  1  0  0  0  0
  3  4  1  0  0  0  0
  3 12  1  0  0  0  0
  4  5  1  0  0  0  0
  4 11  1  0  0  0  0
  5  6  1  0  0  0  0
  6  7  1  0  0  0  0
  6 12  1  0  0  0  0
  7  8  1  0  0  0  0
  7 11  1  0  0  0  0
  8  9  1  0  0  0  0
  9 10  1  0  0  0  0
 10 11  1  0  0  0  0
 10 12  1  0  0  0  0
M  END
