
 OpenBabel03222517363D

 10 12  0  0  0  0  0  0  0  0999 V2000
   -1.9612   -0.0058   -0.7600 C   0  0  0  0  0  0  0  0  0  0  0  0
   -1.3098   -1.4374   -0.3857 C   0  0  0  0  0  0  0  0  0  0  0  0
    0.0470   -1.4602    0.3915 C   0  0  0  0  0  0  0  0  0  0  0  0
    1.5332   -1.5711   -0.0927 C   0  0  0  0  0  0  0  0  0  0  0  0
    2.0053   -0.0073   -0.6207 C   0  0  0  0  0  0  0  0  0  0  0  0
    1.5222    1.5035   -0.2049 C   0  0  0  0  0  0  0  0  0  0  0  0
    0.0701    1.3852    0.3526 C   0  0  0  0  0  0  0  0  0  0  0  0
   -1.2771    1.4091   -0.4220 C   0  0  0  0  0  0  0  0  0  0  0  0
    0.3015   -0.0606    0.4705 C   0  0  0  0  0  0  0  0  0  0  0  0
    0.7106   -0.0887   -1.2830 C   0  0  0  0  0  0  0  0  0  0  0  0
  1  2  1  0  0  0  0
  1  8  1  0  0  0  0
  2  3  1  0  0  0  0
  3  4  1  0  0  0  0
  3  9  1  0  0  0  0
  4  5  1  0  0  0  0
  5  6  1  0  0  0  0
  5 10  1  0  0  0  0
  6  7  1  0  0  0  0
  7  8  1  0  0  0  0
  7  9  1  0  0  0  0
  9 10  1  0  0  0  0
M  END
