
 OpenBabel03222517363D

 12 14  0  0  0  0  0  0  0  0999 V2000
   -2.4980   -0.3971   -0.1574 C   0  0  0  0  0  0  0  0  0  0  0  0
   -1.4369   -1.3329    0.5425 C   0  0  0  0  0  0  0  0  0  0  0  0
    0.0500   -1.7324    0.2189 C   0  0  0  0  0  0  0  0  0  0  0  0
    1.1328   -0.7790    0.7663 C   0  0  0  0  0  0  0  0  0  0  0  0
    1.3083    0.2801   -0.3326 C   0  0  0  0  0  0  0  0  0  0  0  0
    1.1113    1.6951    0.2620 C   0  0  0  0  0  0  0  0  0  0  0  0
   -0.2927    2.0842   -0.1408 C   0  0  0  0  0  0  0  0  0  0  0  0
   -0.3028    1.8669   -1.7200 C   0  0  0  0  0  0  0  0  0  0  0  0
   -0.9264    0.5085   -1.8765 C   0  0  0  0  0  0  0  0  0  0  0  0
   -2.2376    0.7188   -1.1204 C   0  0  0  0  0  0  0  0  0  0  0  0
    0.3706   -0.2988   -1.5377 C   0  0  0  0  0  0  0  0  0  0  0  0
    0.3945   -1.7548   -1.2365 C   0  0  0  0  0  0  0  0  0  0  0  0
  1  2  1  0  0  0  0
  1  7  1  0  0  0  0
  2  3  1  0  0  0  0
  3  4  1  0  0  0  0
  3 12  1  0  0  0  0
  4  5  1  0  0  0  0
  5  6  1  0  0  0  0
  6  7  1  0  0  0  0
  6  8  1  0  0  0  0
  8  9  1  0  0  0  0
  8 12  1  0  0  0  0
  9 10  1  0  0  0  0
 10 11  1  0  0  0  0
 11 12  1  0  0  0  0
M  END
