
 OpenBabel03222517363D

 12 14  0  0  0  0  0  0  0  0999 V2000
   -2.8358    0.1867   -0.0021 C   0  0  0  0  0  0  0  0  0  0  0  0
   -2.3437   -0.8085   -1.0237 C   0  0  0  0  0  0  0  0  0  0  0  0
   -0.9295   -0.3401   -1.3547 C   0  0  0  0  0  0  0  0  0  0  0  0
   -0.3560   -0.0130    0.0270 C   0  0  0  0  0  0  0  0  0  0  0  0
   -1.6318    0.4086    0.8737 C   0  0  0  0  0  0  0  0  0  0  0  0
    0.5001    1.2779    0.1543 C   0  0  0  0  0  0  0  0  0  0  0  0
    1.8460    0.8629    0.7318 C   0  0  0  0  0  0  0  0  0  0  0  0
    2.4215    0.0523   -0.4509 C   0  0  0  0  0  0  0  0  0  0  0  0
    2.0224   -1.3493   -0.1614 C   0  0  0  0  0  0  0  0  0  0  0  0
    0.5351   -1.3544    0.4011 C   0  0  0  0  0  0  0  0  0  0  0  0
    0.6274   -1.2291    1.8978 C   0  0  0  0  0  0  0  0  0  0  0  0
    1.5079    0.0174    2.0892 C   0  0  0  0  0  0  0  0  0  0  0  0
  1  2  1  0  0  0  0
  1  5  1  0  0  0  0
  2  3  1  0  0  0  0
  3  4  1  0  0  0  0
  4  5  1  0  0  0  0
  4  6  1  0  0  0  0
  4 10  1  0  0  0  0
  6  7  1  0  0  0  0
  7  8  1  0  0  0  0
  8  9  1  0  0  0  0
  9 10  1  0  0  0  0
 10 11  1  0  0  0  0
 10 12  1  0  0  0  0
 11 12  1  0  0  0  0
M  END
