
 OpenBabel03222517383D

 14 19  0  0  0  0  0  0  0  0999 V2000
   -1.1367    2.3038    0.0642 C   0  0  0  0  0  0  0  0  0  0  0  0
    0.2142    2.6690   -0.1966 C   0  0  0  0  0  0  0  0  0  0  0  0
    0.3738    1.0068    0.4300 C   0  0  0  0  0  0  0  0  0  0  0  0
   -0.5930   -0.9169   -0.4512 C   0  0  0  0  0  0  0  0  0  0  0  0
   -1.8769   -1.5900    0.5631 C   0  0  0  0  0  0  0  0  0  0  0  0
   -2.7741   -0.6159   -0.0214 C   0  0  0  0  0  0  0  0  0  0  0  0
   -1.4200    0.2365    0.6131 C   0  0  0  0  0  0  0  0  0  0  0  0
   -0.7306    0.9391   -1.0320 C   0  0  0  0  0  0  0  0  0  0  0  0
    1.1032   -0.2511   -0.9717 C   0  0  0  0  0  0  0  0  0  0  0  0
    0.4944   -0.7356    1.0910 C   0  0  0  0  0  0  0  0  0  0  0  0
    1.7839   -1.6916    0.1454 C   0  0  0  0  0  0  0  0  0  0  0  0
    0.4119   -1.5107    0.2568 C   0  0  0  0  0  0  0  0  0  0  0  0
    1.2440    0.3929   -0.4417 C   0  0  0  0  0  0  0  0  0  0  0  0
    2.2791   -0.1886    0.3160 C   0  0  0  0  0  0  0  0  0  0  0  0
  1  2  1  0  0  0  0
  1  8  1  0  0  0  0
  2  3  1  0  0  0  0
  3  4  1  0  0  0  0
  3 13  1  0  0  0  0
  4  5  1  0  0  0  0
  4 12  1  0  0  0  0
  5  6  1  0  0  0  0
  6  7  1  0  0  0  0
  7  8  1  0  0  0  0
  7 10  1  0  0  0  0
  8  9  1  0  0  0  0
  9 10  1  0  0  0  0
  9 14  1  0  0  0  0
 10 11  1  0  0  0  0
 11 12  1  0  0  0  0
 11 14  1  0  0  0  0
 12 13  1  0  0  0  0
 13 14  1  0  0  0  0
M  END
