
 OpenBabel03222517373D

 13 16  0  0  0  0  0  0  0  0999 V2000
   -0.8503    2.1881   -0.7034 C   0  0  0  0  0  0  0  0  0  0  0  0
   -2.1961    1.6945   -0.3949 C   0  0  0  0  0  0  0  0  0  0  0  0
   -1.4041    0.0036   -0.5529 C   0  0  0  0  0  0  0  0  0  0  0  0
   -1.1200    0.7407   -1.7252 C   0  0  0  0  0  0  0  0  0  0  0  0
   -2.3014   -1.3091   -0.4024 C   0  0  0  0  0  0  0  0  0  0  0  0
   -1.0887   -2.1116    0.1069 C   0  0  0  0  0  0  0  0  0  0  0  0
   -0.2107   -0.8846    0.1347 C   0  0  0  0  0  0  0  0  0  0  0  0
    1.1400   -1.6733   -0.1128 C   0  0  0  0  0  0  0  0  0  0  0  0
    1.7599   -0.5115    0.5640 C   0  0  0  0  0  0  0  0  0  0  0  0
    0.3213   -0.3614    1.5018 C   0  0  0  0  0  0  0  0  0  0  0  0
    0.4560    1.1777    1.4170 C   0  0  0  0  0  0  0  0  0  0  0  0
   -0.7776    1.3325    2.4325 C   0  0  0  0  0  0  0  0  0  0  0  0
   -1.2737    0.0385    1.9149 C   0  0  0  0  0  0  0  0  0  0  0  0
  1  2  1  0  0  0  0
  1 11  1  0  0  0  0
  2  3  1  0  0  0  0
  3  4  1  0  0  0  0
  3 10  1  0  0  0  0
  3 13  1  0  0  0  0
  4  5  1  0  0  0  0
  5  6  1  0  0  0  0
  6  7  1  0  0  0  0
  6  9  1  0  0  0  0
  7  8  1  0  0  0  0
  8  9  1  0  0  0  0
  9 10  1  0  0  0  0
 10 11  1  0  0  0  0
 10 12  1  0  0  0  0
 12 13  1  0  0  0  0
M  END
