
 OpenBabel03222517383D

 13 17  0  0  0  0  0  0  0  0999 V2000
    2.3560   -0.5760    0.0832 C   0  0  0  0  0  0  0  0  0  0  0  0
    2.5303    0.8892   -0.0180 C   0  0  0  0  0  0  0  0  0  0  0  0
    1.0274    1.3664    0.8367 C   0  0  0  0  0  0  0  0  0  0  0  0
   -1.0073    1.1652    0.2394 C   0  0  0  0  0  0  0  0  0  0  0  0
   -1.0496    2.3589   -0.6540 C   0  0  0  0  0  0  0  0  0  0  0  0
   -0.4253    1.2912    0.4388 C   0  0  0  0  0  0  0  0  0  0  0  0
   -1.6293   -0.2637    0.3772 C   0  0  0  0  0  0  0  0  0  0  0  0
   -1.6339   -1.7568    0.1657 C   0  0  0  0  0  0  0  0  0  0  0  0
   -0.3979   -2.5416    0.1179 C   0  0  0  0  0  0  0  0  0  0  0  0
    0.5734   -1.4100    0.3121 C   0  0  0  0  0  0  0  0  0  0  0  0
    0.7603   -0.9208   -1.0064 C   0  0  0  0  0  0  0  0  0  0  0  0
   -1.0335   -0.0817   -0.9404 C   0  0  0  0  0  0  0  0  0  0  0  0
    0.6466    0.4537   -0.1473 C   0  0  0  0  0  0  0  0  0  0  0  0
  1  2  1  0  0  0  0
  1 11  1  0  0  0  0
  2  3  1  0  0  0  0
  3  4  1  0  0  0  0
  3 13  1  0  0  0  0
  4  5  1  0  0  0  0
  4 12  1  0  0  0  0
  5  6  1  0  0  0  0
  6  7  1  0  0  0  0
  6 13  1  0  0  0  0
  7  8  1  0  0  0  0
  7 12  1  0  0  0  0
  8  9  1  0  0  0  0
  9 10  1  0  0  0  0
 10 11  1  0  0  0  0
 10 13  1  0  0  0  0
 11 12  1  0  0  0  0
M  END
