
 OpenBabel03222517373D

 11 14  0  0  0  0  0  0  0  0999 V2000
   -1.4649   -0.5765   -0.4323 C   0  0  0  0  0  0  0  0  0  0  0  0
   -1.9190   -1.1717   -1.5903 C   0  0  0  0  0  0  0  0  0  0  0  0
   -0.7149   -0.1984   -1.1286 C   0  0  0  0  0  0  0  0  0  0  0  0
    0.4709    0.6779   -1.7232 C   0  0  0  0  0  0  0  0  0  0  0  0
    1.1180    1.0398   -0.3438 C   0  0  0  0  0  0  0  0  0  0  0  0
    2.1331   -0.0057   -0.4642 C   0  0  0  0  0  0  0  0  0  0  0  0
    0.6099   -1.1243   -0.0541 C   0  0  0  0  0  0  0  0  0  0  0  0
    1.2166   -0.7494    1.3438 C   0  0  0  0  0  0  0  0  0  0  0  0
    0.6125    0.5578    1.0458 C   0  0  0  0  0  0  0  0  0  0  0  0
   -0.6636   -0.0069    1.0326 C   0  0  0  0  0  0  0  0  0  0  0  0
    0.5467    1.9994    0.7034 C   0  0  0  0  0  0  0  0  0  0  0  0
  1  2  1  0  0  0  0
  1 10  1  0  0  0  0
  2  3  1  0  0  0  0
  3  4  1  0  0  0  0
  3  9  1  0  0  0  0
  4  5  1  0  0  0  0
  5  6  1  0  0  0  0
  5 11  1  0  0  0  0
  6  7  1  0  0  0  0
  6 11  1  0  0  0  0
  7  8  1  0  0  0  0
  8  9  1  0  0  0  0
  9 10  1  0  0  0  0
  9 11  1  0  0  0  0
M  END
