
 OpenBabel03222517373D

 14 16  0  0  0  0  0  0  0  0999 V2000
    2.7388   -0.0857    0.0237 C   0  0  0  0  0  0  0  0  0  0  0  0
    1.8798   -1.3190    0.2900 C   0  0  0  0  0  0  0  0  0  0  0  0
    0.6048   -0.9423    1.0472 C   0  0  0  0  0  0  0  0  0  0  0  0
   -0.1852    0.1320    0.2906 C   0  0  0  0  0  0  0  0  0  0  0  0
    0.7040    1.3576   -0.0076 C   0  0  0  0  0  0  0  0  0  0  0  0
    1.9768    0.9890   -0.7445 C   0  0  0  0  0  0  0  0  0  0  0  0
   -1.3592    0.6628    1.1091 C   0  0  0  0  0  0  0  0  0  0  0  0
   -2.5804    0.5290    0.2426 C   0  0  0  0  0  0  0  0  0  0  0  0
   -3.1996    1.6593   -0.5376 C   0  0  0  0  0  0  0  0  0  0  0  0
   -4.3419    1.0027   -1.3904 C   0  0  0  0  0  0  0  0  0  0  0  0
   -4.7254   -0.4523   -0.8755 C   0  0  0  0  0  0  0  0  0  0  0  0
   -3.4718   -1.4437   -0.7357 C   0  0  0  0  0  0  0  0  0  0  0  0
   -2.2787   -0.5046   -0.8382 C   0  0  0  0  0  0  0  0  0  0  0  0
   -0.7882   -0.5333   -0.9666 C   0  0  0  0  0  0  0  0  0  0  0  0
  1  2  1  0  0  0  0
  1  6  1  0  0  0  0
  2  3  1  0  0  0  0
  3  4  1  0  0  0  0
  4  5  1  0  0  0  0
  4  7  1  0  0  0  0
  4 14  1  0  0  0  0
  5  6  1  0  0  0  0
  7  8  1  0  0  0  0
  8  9  1  0  0  0  0
  8 13  1  0  0  0  0
  9 10  1  0  0  0  0
 10 11  1  0  0  0  0
 11 12  1  0  0  0  0
 12 13  1  0  0  0  0
 13 14  1  0  0  0  0
M  END
