
 OpenBabel03222517383D

 14 19  0  0  0  0  0  0  0  0999 V2000
   -2.4726    0.1581    0.2852 C   0  0  0  0  0  0  0  0  0  0  0  0
   -1.7934    1.3790    0.8909 C   0  0  0  0  0  0  0  0  0  0  0  0
   -0.5967    0.7579    1.4950 C   0  0  0  0  0  0  0  0  0  0  0  0
    0.1138    0.2371    0.2632 C   0  0  0  0  0  0  0  0  0  0  0  0
    0.5768    0.7741   -1.2717 C   0  0  0  0  0  0  0  0  0  0  0  0
    0.8306   -0.0080   -2.7002 C   0  0  0  0  0  0  0  0  0  0  0  0
    0.5799   -1.4921   -2.5575 C   0  0  0  0  0  0  0  0  0  0  0  0
    1.3195   -1.6473   -1.2785 C   0  0  0  0  0  0  0  0  0  0  0  0
    2.3830   -0.6107   -0.6984 C   0  0  0  0  0  0  0  0  0  0  0  0
    1.8998    0.8485   -0.5501 C   0  0  0  0  0  0  0  0  0  0  0  0
    1.4903    0.3867    0.8395 C   0  0  0  0  0  0  0  0  0  0  0  0
    1.6616   -1.0760    0.5972 C   0  0  0  0  0  0  0  0  0  0  0  0
    0.1424   -1.2522   -0.0451 C   0  0  0  0  0  0  0  0  0  0  0  0
   -1.4931   -0.8226   -0.5647 C   0  0  0  0  0  0  0  0  0  0  0  0
  1  2  1  0  0  0  0
  1 14  1  0  0  0  0
  2  3  1  0  0  0  0
  3  4  1  0  0  0  0
  4  5  1  0  0  0  0
  4 12  1  0  0  0  0
  4 13  1  0  0  0  0
  5  6  1  0  0  0  0
  5 10  1  0  0  0  0
  6  7  1  0  0  0  0
  7  8  1  0  0  0  0
  8  9  1  0  0  0  0
  8 13  1  0  0  0  0
  9 10  1  0  0  0  0
  9 11  1  0  0  0  0
 10 11  1  0  0  0  0
 11 12  1  0  0  0  0
 12 13  1  0  0  0  0
 13 14  1  0  0  0  0
M  END
