
 OpenBabel03222517363D

  9 13  0  0  0  0  0  0  0  0999 V2000
   -1.7045    0.6129   -0.4800 C   0  0  0  0  0  0  0  0  0  0  0  0
   -0.5368    0.5934   -1.4719 C   0  0  0  0  0  0  0  0  0  0  0  0
    0.5918   -0.3686   -1.2064 C   0  0  0  0  0  0  0  0  0  0  0  0
    0.7464    1.0713   -0.7705 C   0  0  0  0  0  0  0  0  0  0  0  0
    0.8189    0.9247    0.8515 C   0  0  0  0  0  0  0  0  0  0  0  0
   -0.2592    0.0070    1.5178 C   0  0  0  0  0  0  0  0  0  0  0  0
   -1.1515   -0.5577    0.4736 C   0  0  0  0  0  0  0  0  0  0  0  0
    0.1925   -1.2464   -0.1119 C   0  0  0  0  0  0  0  0  0  0  0  0
    0.9600   -0.5992    0.9479 C   0  0  0  0  0  0  0  0  0  0  0  0
  1  2  1  0  0  0  0
  1  5  1  0  0  0  0
  2  3  1  0  0  0  0
  2  7  1  0  0  0  0
  3  4  1  0  0  0  0
  3  9  1  0  0  0  0
  4  5  1  0  0  0  0
  4  9  1  0  0  0  0
  5  6  1  0  0  0  0
  6  7  1  0  0  0  0
  6  8  1  0  0  0  0
  7  8  1  0  0  0  0
  8  9  1  0  0  0  0
M  END
