
 OpenBabel03222517373D

 12 16  0  0  0  0  0  0  0  0999 V2000
   -1.7411    0.1892   -0.8162 C   0  0  0  0  0  0  0  0  0  0  0  0
   -0.7160   -0.9137   -0.9074 C   0  0  0  0  0  0  0  0  0  0  0  0
    0.1317   -1.0895    0.3851 C   0  0  0  0  0  0  0  0  0  0  0  0
    0.0275   -0.0833    1.5450 C   0  0  0  0  0  0  0  0  0  0  0  0
    0.1064    1.2406    0.8189 C   0  0  0  0  0  0  0  0  0  0  0  0
   -0.8829    1.3719   -0.3437 C   0  0  0  0  0  0  0  0  0  0  0  0
    0.2946    1.7808   -1.3058 C   0  0  0  0  0  0  0  0  0  0  0  0
    0.9088    0.7947   -2.3618 C   0  0  0  0  0  0  0  0  0  0  0  0
    0.5651   -0.6068   -1.7661 C   0  0  0  0  0  0  0  0  0  0  0  0
    1.3879   -0.9962   -0.5094 C   0  0  0  0  0  0  0  0  0  0  0  0
    2.3169    0.1669   -0.2135 C   0  0  0  0  0  0  0  0  0  0  0  0
    1.2993    1.3703   -0.1421 C   0  0  0  0  0  0  0  0  0  0  0  0
  1  2  1  0  0  0  0
  1  6  1  0  0  0  0
  2  3  1  0  0  0  0
  2  9  1  0  0  0  0
  3  4  1  0  0  0  0
  3 10  1  0  0  0  0
  4  5  1  0  0  0  0
  5  6  1  0  0  0  0
  5 12  1  0  0  0  0
  6  7  1  0  0  0  0
  7  8  1  0  0  0  0
  7 12  1  0  0  0  0
  8  9  1  0  0  0  0
  9 10  1  0  0  0  0
 10 11  1  0  0  0  0
 11 12  1  0  0  0  0
M  END
