
 OpenBabel03222517363D

 12 13  0  0  0  0  0  0  0  0999 V2000
   -1.3830    0.1923   -0.6017 C   0  0  0  0  0  0  0  0  0  0  0  0
   -2.0169    1.2167    0.3447 C   0  0  0  0  0  0  0  0  0  0  0  0
   -0.9388    2.2525    0.5323 C   0  0  0  0  0  0  0  0  0  0  0  0
    0.3762    1.4084    0.9063 C   0  0  0  0  0  0  0  0  0  0  0  0
    0.1919   -0.1984    1.9460 C   0  0  0  0  0  0  0  0  0  0  0  0
   -0.8460   -1.5933    1.5175 C   0  0  0  0  0  0  0  0  0  0  0  0
   -0.9514   -2.2066   -0.0826 C   0  0  0  0  0  0  0  0  0  0  0  0
    0.4409   -1.7059   -1.2023 C   0  0  0  0  0  0  0  0  0  0  0  0
    0.1581   -0.6058   -0.2559 C   0  0  0  0  0  0  0  0  0  0  0  0
    2.1373   -0.8835   -1.0428 C   0  0  0  0  0  0  0  0  0  0  0  0
    2.1576    0.6261   -1.5613 C   0  0  0  0  0  0  0  0  0  0  0  0
    0.9079    1.4293   -0.9470 C   0  0  0  0  0  0  0  0  0  0  0  0
  1  2  1  0  0  0  0
  1  8  1  0  0  0  0
  2  3  1  0  0  0  0
  3  4  1  0  0  0  0
  4  5  1  0  0  0  0
  5  6  1  0  0  0  0
  5  9  1  0  0  0  0
  5 12  1  0  0  0  0
  6  7  1  0  0  0  0
  7  8  1  0  0  0  0
  9 10  1  0  0  0  0
 10 11  1  0  0  0  0
 11 12  1  0  0  0  0
M  END
