
 OpenBabel03222517373D

 14 16  0  0  0  0  0  0  0  0999 V2000
    0.6017    0.9214   -1.4644 C   0  0  0  0  0  0  0  0  0  0  0  0
    2.0239    0.2626   -0.5524 C   0  0  0  0  0  0  0  0  0  0  0  0
    1.8595   -1.1867   -0.1338 C   0  0  0  0  0  0  0  0  0  0  0  0
    1.9032   -1.9237   -1.4938 C   0  0  0  0  0  0  0  0  0  0  0  0
    1.5947   -1.2716   -2.8580 C   0  0  0  0  0  0  0  0  0  0  0  0
    0.0117   -1.3880   -2.8871 C   0  0  0  0  0  0  0  0  0  0  0  0
   -0.8732   -1.2043   -1.4885 C   0  0  0  0  0  0  0  0  0  0  0  0
   -1.0363    0.2841   -1.7758 C   0  0  0  0  0  0  0  0  0  0  0  0
   -0.8687   -0.7484    0.1168 C   0  0  0  0  0  0  0  0  0  0  0  0
   -1.6734    0.8047    0.7564 C   0  0  0  0  0  0  0  0  0  0  0  0
   -0.8786    1.7879    1.6818 C   0  0  0  0  0  0  0  0  0  0  0  0
    0.4892    1.3927    1.3809 C   0  0  0  0  0  0  0  0  0  0  0  0
    0.5801   -0.1199    1.8402 C   0  0  0  0  0  0  0  0  0  0  0  0
    0.4697   -1.1636    0.7401 C   0  0  0  0  0  0  0  0  0  0  0  0
  1  2  1  0  0  0  0
  1 12  1  0  0  0  0
  2  3  1  0  0  0  0
  3  4  1  0  0  0  0
  3 14  1  0  0  0  0
  4  5  1  0  0  0  0
  5  6  1  0  0  0  0
  6  7  1  0  0  0  0
  7  8  1  0  0  0  0
  7 13  1  0  0  0  0
  8  9  1  0  0  0  0
  9 10  1  0  0  0  0
 10 11  1  0  0  0  0
 11 12  1  0  0  0  0
 11 13  1  0  0  0  0
 13 14  1  0  0  0  0
M  END
