
 OpenBabel03222517373D

 13 16  0  0  0  0  0  0  0  0999 V2000
    0.0014    3.1002    0.3308 C   0  0  0  0  0  0  0  0  0  0  0  0
   -1.3569    2.5063    0.0029 C   0  0  0  0  0  0  0  0  0  0  0  0
   -1.1233    1.0728    0.4550 C   0  0  0  0  0  0  0  0  0  0  0  0
   -1.7222    0.0745   -0.4719 C   0  0  0  0  0  0  0  0  0  0  0  0
   -0.7792   -1.1011   -0.3276 C   0  0  0  0  0  0  0  0  0  0  0  0
   -0.0919   -2.0976    0.6439 C   0  0  0  0  0  0  0  0  0  0  0  0
   -0.0300   -3.4252   -0.1445 C   0  0  0  0  0  0  0  0  0  0  0  0
    0.5848   -2.9008   -1.4589 C   0  0  0  0  0  0  0  0  0  0  0  0
    1.2488   -1.5820   -1.0232 C   0  0  0  0  0  0  0  0  0  0  0  0
    1.4593   -1.8405    0.4625 C   0  0  0  0  0  0  0  0  0  0  0  0
    0.4001   -0.3234   -0.8446 C   0  0  0  0  0  0  0  0  0  0  0  0
    0.3793    0.8296    0.2451 C   0  0  0  0  0  0  0  0  0  0  0  0
    0.8620    2.1259   -0.4321 C   0  0  0  0  0  0  0  0  0  0  0  0
  1  2  1  0  0  0  0
  1 13  1  0  0  0  0
  2  3  1  0  0  0  0
  3  4  1  0  0  0  0
  3 12  1  0  0  0  0
  4  5  1  0  0  0  0
  5  6  1  0  0  0  0
  5 11  1  0  0  0  0
  6  7  1  0  0  0  0
  7  8  1  0  0  0  0
  7  9  1  0  0  0  0
  7 10  1  0  0  0  0
  8  9  1  0  0  0  0
 10 11  1  0  0  0  0
 11 12  1  0  0  0  0
 12 13  1  0  0  0  0
M  END
