
 OpenBabel03222517363D

 14 15  0  0  0  0  0  0  0  0999 V2000
   -1.3321    2.6236    0.3941 C   0  0  0  0  0  0  0  0  0  0  0  0
   -0.0572    3.2344   -0.1686 C   0  0  0  0  0  0  0  0  0  0  0  0
    1.1541    2.5163    0.3708 C   0  0  0  0  0  0  0  0  0  0  0  0
    1.7048    1.5344   -0.6492 C   0  0  0  0  0  0  0  0  0  0  0  0
    2.4064    0.4215    0.0478 C   0  0  0  0  0  0  0  0  0  0  0  0
    1.5624   -0.8905    0.3796 C   0  0  0  0  0  0  0  0  0  0  0  0
    2.2658   -2.2072   -0.0123 C   0  0  0  0  0  0  0  0  0  0  0  0
    1.3250   -2.9766   -0.9132 C   0  0  0  0  0  0  0  0  0  0  0  0
   -0.0167   -2.7449   -0.2475 C   0  0  0  0  0  0  0  0  0  0  0  0
   -0.0436   -1.2135   -0.0539 C   0  0  0  0  0  0  0  0  0  0  0  0
   -1.3957   -1.0154    0.7849 C   0  0  0  0  0  0  0  0  0  0  0  0
   -2.7250   -0.6597   -0.0204 C   0  0  0  0  0  0  0  0  0  0  0  0
   -3.0350    0.8284    0.1138 C   0  0  0  0  0  0  0  0  0  0  0  0
   -1.9172    1.6019   -0.5518 C   0  0  0  0  0  0  0  0  0  0  0  0
  1  2  1  0  0  0  0
  1 14  1  0  0  0  0
  2  3  1  0  0  0  0
  3  4  1  0  0  0  0
  4  5  1  0  0  0  0
  5  6  1  0  0  0  0
  6  7  1  0  0  0  0
  7  8  1  0  0  0  0
  7  9  1  0  0  0  0
  8  9  1  0  0  0  0
  9 10  1  0  0  0  0
 10 11  1  0  0  0  0
 11 12  1  0  0  0  0
 12 13  1  0  0  0  0
 13 14  1  0  0  0  0
M  END
