
 OpenBabel03222517363D

 12 13  0  0  0  0  0  0  0  0999 V2000
    0.4345    1.9791    0.4036 C   0  0  0  0  0  0  0  0  0  0  0  0
    1.6537    1.5110   -0.4115 C   0  0  0  0  0  0  0  0  0  0  0  0
    2.4901    0.4296    0.3021 C   0  0  0  0  0  0  0  0  0  0  0  0
    2.1829   -1.0466    0.0463 C   0  0  0  0  0  0  0  0  0  0  0  0
    0.8188   -1.5132    0.5625 C   0  0  0  0  0  0  0  0  0  0  0  0
   -0.2868   -1.5028   -0.4678 C   0  0  0  0  0  0  0  0  0  0  0  0
   -1.7167   -1.6076    0.0637 C   0  0  0  0  0  0  0  0  0  0  0  0
   -2.5282   -0.3034   -0.0740 C   0  0  0  0  0  0  0  0  0  0  0  0
   -1.8856    0.8835    0.6515 C   0  0  0  0  0  0  0  0  0  0  0  0
   -0.9731    1.7998   -0.2000 C   0  0  0  0  0  0  0  0  0  0  0  0
   -0.1983   -0.8619   -1.8315 C   0  0  0  0  0  0  0  0  0  0  0  0
    0.0675   -2.3338   -1.7106 C   0  0  0  0  0  0  0  0  0  0  0  0
  1  2  1  0  0  0  0
  1 10  1  0  0  0  0
  2  3  1  0  0  0  0
  3  4  1  0  0  0  0
  4  5  1  0  0  0  0
  5  6  1  0  0  0  0
  6  7  1  0  0  0  0
  6 11  1  0  0  0  0
  6 12  1  0  0  0  0
  7  8  1  0  0  0  0
  8  9  1  0  0  0  0
  9 10  1  0  0  0  0
 11 12  1  0  0  0  0
M  END
