
 OpenBabel03222517363D

 14 16  0  0  0  0  0  0  0  0999 V2000
   -1.6194    3.1144    0.0037 C   0  0  0  0  0  0  0  0  0  0  0  0
   -0.1726    3.0855   -0.1678 C   0  0  0  0  0  0  0  0  0  0  0  0
    0.0353    1.6125    0.3479 C   0  0  0  0  0  0  0  0  0  0  0  0
    1.2157    1.2648   -0.5660 C   0  0  0  0  0  0  0  0  0  0  0  0
    2.1628    0.3983    0.1752 C   0  0  0  0  0  0  0  0  0  0  0  0
    1.5718   -0.9431   -0.1182 C   0  0  0  0  0  0  0  0  0  0  0  0
    2.0373   -2.0048    0.8258 C   0  0  0  0  0  0  0  0  0  0  0  0
    1.5897   -3.0875   -0.1804 C   0  0  0  0  0  0  0  0  0  0  0  0
    0.1638   -3.0632    0.0792 C   0  0  0  0  0  0  0  0  0  0  0  0
   -0.0422   -1.5474   -0.2600 C   0  0  0  0  0  0  0  0  0  0  0  0
   -1.2516   -1.3039    0.6605 C   0  0  0  0  0  0  0  0  0  0  0  0
   -2.1786   -0.3791   -0.0231 C   0  0  0  0  0  0  0  0  0  0  0  0
   -1.5643    0.9704    0.2491 C   0  0  0  0  0  0  0  0  0  0  0  0
   -1.9712    1.8861   -0.8456 C   0  0  0  0  0  0  0  0  0  0  0  0
  1  2  1  0  0  0  0
  1 14  1  0  0  0  0
  2  3  1  0  0  0  0
  3  4  1  0  0  0  0
  3 13  1  0  0  0  0
  4  5  1  0  0  0  0
  5  6  1  0  0  0  0
  6  7  1  0  0  0  0
  6 10  1  0  0  0  0
  7  8  1  0  0  0  0
  8  9  1  0  0  0  0
  9 10  1  0  0  0  0
 10 11  1  0  0  0  0
 11 12  1  0  0  0  0
 12 13  1  0  0  0  0
 13 14  1  0  0  0  0
M  END
