
 OpenBabel03222517363D

 11 13  0  0  0  0  0  0  0  0999 V2000
    0.5518    2.0224    0.2931 C   0  0  0  0  0  0  0  0  0  0  0  0
    1.6190    1.4003   -0.5942 C   0  0  0  0  0  0  0  0  0  0  0  0
    2.4372    0.3889    0.1947 C   0  0  0  0  0  0  0  0  0  0  0  0
    1.9877   -1.0224   -0.1087 C   0  0  0  0  0  0  0  0  0  0  0  0
    0.5729   -1.3934    0.2149 C   0  0  0  0  0  0  0  0  0  0  0  0
   -0.2964   -1.7183   -0.9556 C   0  0  0  0  0  0  0  0  0  0  0  0
   -1.4911   -1.8479    0.0038 C   0  0  0  0  0  0  0  0  0  0  0  0
   -0.7483   -0.8572    0.8474 C   0  0  0  0  0  0  0  0  0  0  0  0
   -1.3209    0.5357    0.9440 C   0  0  0  0  0  0  0  0  0  0  0  0
   -0.8496    1.5683   -0.0800 C   0  0  0  0  0  0  0  0  0  0  0  0
    0.3242   -1.4593    1.7207 C   0  0  0  0  0  0  0  0  0  0  0  0
  1  2  1  0  0  0  0
  1 10  1  0  0  0  0
  2  3  1  0  0  0  0
  3  4  1  0  0  0  0
  4  5  1  0  0  0  0
  5  6  1  0  0  0  0
  5  8  1  0  0  0  0
  5 11  1  0  0  0  0
  6  7  1  0  0  0  0
  7  8  1  0  0  0  0
  8  9  1  0  0  0  0
  8 11  1  0  0  0  0
  9 10  1  0  0  0  0
M  END
