
 OpenBabel03222517383D

 14 17  0  0  0  0  0  0  0  0999 V2000
    2.8701   -0.6791    0.3544 C   0  0  0  0  0  0  0  0  0  0  0  0
    3.2046    0.6767   -0.1750 C   0  0  0  0  0  0  0  0  0  0  0  0
    2.1414    1.5656    0.4983 C   0  0  0  0  0  0  0  0  0  0  0  0
    0.7859    0.8659    0.1152 C   0  0  0  0  0  0  0  0  0  0  0  0
    0.8064   -0.6310   -0.1614 C   0  0  0  0  0  0  0  0  0  0  0  0
    1.9680   -1.2374   -0.7558 C   0  0  0  0  0  0  0  0  0  0  0  0
   -0.5602   -0.4893   -0.8808 C   0  0  0  0  0  0  0  0  0  0  0  0
   -1.3533    1.1941   -1.2657 C   0  0  0  0  0  0  0  0  0  0  0  0
   -1.4910    1.8981    0.0423 C   0  0  0  0  0  0  0  0  0  0  0  0
   -2.8805    1.6258    0.7079 C   0  0  0  0  0  0  0  0  0  0  0  0
   -3.3995    0.3563    0.0241 C   0  0  0  0  0  0  0  0  0  0  0  0
   -2.1835   -0.3894    0.4144 C   0  0  0  0  0  0  0  0  0  0  0  0
   -1.5919   -1.3710   -0.9231 C   0  0  0  0  0  0  0  0  0  0  0  0
   -0.7376    0.9653    0.8923 C   0  0  0  0  0  0  0  0  0  0  0  0
  1  2  1  0  0  0  0
  1  6  1  0  0  0  0
  2  3  1  0  0  0  0
  3  4  1  0  0  0  0
  4  5  1  0  0  0  0
  4 14  1  0  0  0  0
  5  6  1  0  0  0  0
  5  7  1  0  0  0  0
  7  8  1  0  0  0  0
  7 13  1  0  0  0  0
  8  9  1  0  0  0  0
  9 10  1  0  0  0  0
  9 14  1  0  0  0  0
 10 11  1  0  0  0  0
 11 12  1  0  0  0  0
 12 13  1  0  0  0  0
 12 14  1  0  0  0  0
M  END
