
 OpenBabel03222517383D

 14 18  0  0  0  0  0  0  0  0999 V2000
    2.9122    0.2028   -0.3129 C   0  0  0  0  0  0  0  0  0  0  0  0
    1.9051    0.7558   -1.4045 C   0  0  0  0  0  0  0  0  0  0  0  0
    0.3300    0.3390   -1.2403 C   0  0  0  0  0  0  0  0  0  0  0  0
   -1.6580    0.6815   -0.9988 C   0  0  0  0  0  0  0  0  0  0  0  0
   -2.1401    1.5723    0.1299 C   0  0  0  0  0  0  0  0  0  0  0  0
   -0.7229    1.7760    0.3893 C   0  0  0  0  0  0  0  0  0  0  0  0
   -0.3345    0.1030    0.4376 C   0  0  0  0  0  0  0  0  0  0  0  0
   -1.2653   -1.1131   -0.8589 C   0  0  0  0  0  0  0  0  0  0  0  0
   -2.9400   -1.6694   -0.9895 C   0  0  0  0  0  0  0  0  0  0  0  0
   -2.2671   -0.7629   -0.1448 C   0  0  0  0  0  0  0  0  0  0  0  0
   -1.5486   -1.6647    1.0268 C   0  0  0  0  0  0  0  0  0  0  0  0
    0.1347   -1.9560    0.5679 C   0  0  0  0  0  0  0  0  0  0  0  0
    0.7912   -0.6194   -0.0130 C   0  0  0  0  0  0  0  0  0  0  0  0
    2.0619   -0.3593    0.7558 C   0  0  0  0  0  0  0  0  0  0  0  0
  1  2  1  0  0  0  0
  1 14  1  0  0  0  0
  2  3  1  0  0  0  0
  3  4  1  0  0  0  0
  3 13  1  0  0  0  0
  4  5  1  0  0  0  0
  4 10  1  0  0  0  0
  5  6  1  0  0  0  0
  6  7  1  0  0  0  0
  7  8  1  0  0  0  0
  7 13  1  0  0  0  0
  8  9  1  0  0  0  0
  8 10  1  0  0  0  0
  9 10  1  0  0  0  0
 10 11  1  0  0  0  0
 11 12  1  0  0  0  0
 12 13  1  0  0  0  0
 13 14  1  0  0  0  0
M  END
