
 OpenBabel03222517353D

 10 11  0  0  0  0  0  0  0  0999 V2000
   -1.6335    0.1754   -0.0398 C   0  0  0  0  0  0  0  0  0  0  0  0
   -1.6248   -1.3139   -0.4992 C   0  0  0  0  0  0  0  0  0  0  0  0
   -0.2471   -1.8010   -0.9143 C   0  0  0  0  0  0  0  0  0  0  0  0
    0.7190   -1.3535    0.1392 C   0  0  0  0  0  0  0  0  0  0  0  0
    1.1160    0.1205   -0.0154 C   0  0  0  0  0  0  0  0  0  0  0  0
    0.5738    1.5023   -0.3964 C   0  0  0  0  0  0  0  0  0  0  0  0
   -0.8069    1.2232   -0.9069 C   0  0  0  0  0  0  0  0  0  0  0  0
    1.4042    0.4079    1.4412 C   0  0  0  0  0  0  0  0  0  0  0  0
    2.8693    0.4873    0.8443 C   0  0  0  0  0  0  0  0  0  0  0  0
    2.5079    0.0995   -0.6228 C   0  0  0  0  0  0  0  0  0  0  0  0
  1  2  1  0  0  0  0
  1  8  1  0  0  0  0
  2  3  1  0  0  0  0
  3  4  1  0  0  0  0
  4  5  1  0  0  0  0
  5  6  1  0  0  0  0
  5  9  1  0  0  0  0
  5 10  1  0  0  0  0
  6  7  1  0  0  0  0
  7  8  1  0  0  0  0
  9 10  1  0  0  0  0
M  END
