
 OpenBabel03222517393D

 15 18  0  0  0  0  0  0  0  0999 V2000
   -1.4063    3.1872    0.1217 C   0  0  0  0  0  0  0  0  0  0  0  0
    0.0743    3.4303   -0.0878 C   0  0  0  0  0  0  0  0  0  0  0  0
    0.8078    2.3056    0.6861 C   0  0  0  0  0  0  0  0  0  0  0  0
    0.1435    0.9603    0.3436 C   0  0  0  0  0  0  0  0  0  0  0  0
   -1.3617    0.9889    0.0401 C   0  0  0  0  0  0  0  0  0  0  0  0
   -1.7525    2.0809   -0.8540 C   0  0  0  0  0  0  0  0  0  0  0  0
   -1.5222   -0.3073   -0.6720 C   0  0  0  0  0  0  0  0  0  0  0  0
   -0.2886   -1.0096   -0.0893 C   0  0  0  0  0  0  0  0  0  0  0  0
   -1.1983   -2.1825    0.3556 C   0  0  0  0  0  0  0  0  0  0  0  0
   -0.4453   -3.3178   -0.1567 C   0  0  0  0  0  0  0  0  0  0  0  0
    0.9183   -3.0817    0.4823 C   0  0  0  0  0  0  0  0  0  0  0  0
    1.9590   -2.3069   -0.2674 C   0  0  0  0  0  0  0  0  0  0  0  0
    1.3333   -1.0445   -0.7282 C   0  0  0  0  0  0  0  0  0  0  0  0
    0.7341   -2.0691    1.7451 C   0  0  0  0  0  0  0  0  0  0  0  0
    0.2900   -0.3851    1.2985 C   0  0  0  0  0  0  0  0  0  0  0  0
  1  2  1  0  0  0  0
  1  6  1  0  0  0  0
  2  3  1  0  0  0  0
  3  4  1  0  0  0  0
  4  5  1  0  0  0  0
  4 15  1  0  0  0  0
  5  6  1  0  0  0  0
  5  7  1  0  0  0  0
  7  8  1  0  0  0  0
  8  9  1  0  0  0  0
  9 10  1  0  0  0  0
  9 15  1  0  0  0  0
 10 11  1  0  0  0  0
 10 14  1  0  0  0  0
 11 12  1  0  0  0  0
 12 13  1  0  0  0  0
 13 14  1  0  0  0  0
 13 15  1  0  0  0  0
M  END
