
 OpenBabel03222517353D

 10 12  0  0  0  0  0  0  0  0999 V2000
    2.7281   -0.6145   -0.1047 C   0  0  0  0  0  0  0  0  0  0  0  0
    2.0602   -1.8645    0.1355 C   0  0  0  0  0  0  0  0  0  0  0  0
    1.2263   -0.6605   -0.1840 C   0  0  0  0  0  0  0  0  0  0  0  0
    0.7988    0.5682    0.6120 C   0  0  0  0  0  0  0  0  0  0  0  0
   -0.0186    1.3671   -0.4200 C   0  0  0  0  0  0  0  0  0  0  0  0
   -1.3526    0.6656   -0.2730 C   0  0  0  0  0  0  0  0  0  0  0  0
   -1.7877    0.9659    1.1871 C   0  0  0  0  0  0  0  0  0  0  0  0
   -2.7721    1.0489    0.1132 C   0  0  0  0  0  0  0  0  0  0  0  0
   -1.2856   -0.7486   -0.8477 C   0  0  0  0  0  0  0  0  0  0  0  0
    0.1627   -1.0607   -1.3139 C   0  0  0  0  0  0  0  0  0  0  0  0
  1  2  1  0  0  0  0
  1  5  1  0  0  0  0
  2  3  1  0  0  0  0
  3  4  1  0  0  0  0
  3  6  1  0  0  0  0
  4  5  1  0  0  0  0
  4  6  1  0  0  0  0
  6  7  1  0  0  0  0
  6 10  1  0  0  0  0
  7  8  1  0  0  0  0
  8  9  1  0  0  0  0
  9 10  1  0  0  0  0
M  END
