
 OpenBabel03222517393D

 14 21  0  0  0  0  0  0  0  0999 V2000
   -0.3193    1.1914    0.9215 C   0  0  0  0  0  0  0  0  0  0  0  0
   -0.8473    2.3254   -0.1404 C   0  0  0  0  0  0  0  0  0  0  0  0
   -2.0331    1.3763   -0.3560 C   0  0  0  0  0  0  0  0  0  0  0  0
   -1.1017    0.3842   -1.0021 C   0  0  0  0  0  0  0  0  0  0  0  0
    0.3244   -1.1967   -0.9801 C   0  0  0  0  0  0  0  0  0  0  0  0
    1.0767   -0.4352    0.9771 C   0  0  0  0  0  0  0  0  0  0  0  0
    2.0499   -1.4086    0.3296 C   0  0  0  0  0  0  0  0  0  0  0  0
    0.9063   -2.4029   -0.0645 C   0  0  0  0  0  0  0  0  0  0  0  0
   -0.1186   -1.4700   -0.2128 C   0  0  0  0  0  0  0  0  0  0  0  0
   -0.6789   -0.5848    0.6598 C   0  0  0  0  0  0  0  0  0  0  0  0
   -1.7502    0.2973    0.4666 C   0  0  0  0  0  0  0  0  0  0  0  0
    0.1408    1.4182    0.2646 C   0  0  0  0  0  0  0  0  0  0  0  0
    0.6471    0.5796   -0.6882 C   0  0  0  0  0  0  0  0  0  0  0  0
    1.7234   -0.2827   -0.4106 C   0  0  0  0  0  0  0  0  0  0  0  0
  1  2  1  0  0  0  0
  1  4  1  0  0  0  0
  1  6  1  0  0  0  0
  2  3  1  0  0  0  0
  2 12  1  0  0  0  0
  3  4  1  0  0  0  0
  3 11  1  0  0  0  0
  4  5  1  0  0  0  0
  5  6  1  0  0  0  0
  5  8  1  0  0  0  0
  6  7  1  0  0  0  0
  7  8  1  0  0  0  0
  7 14  1  0  0  0  0
  8  9  1  0  0  0  0
  9 10  1  0  0  0  0
  9 14  1  0  0  0  0
 10 11  1  0  0  0  0
 10 13  1  0  0  0  0
 11 12  1  0  0  0  0
 12 13  1  0  0  0  0
 13 14  1  0  0  0  0
M  END
