
 OpenBabel03222517363D

 11 14  0  0  0  0  0  0  0  0999 V2000
    0.3843    2.0434    0.6436 C   0  0  0  0  0  0  0  0  0  0  0  0
   -1.0256    1.6413    0.3790 C   0  0  0  0  0  0  0  0  0  0  0  0
   -0.8264    0.0370    1.1299 C   0  0  0  0  0  0  0  0  0  0  0  0
    0.3678   -1.4245    0.4526 C   0  0  0  0  0  0  0  0  0  0  0  0
    1.7662   -1.3798    0.6667 C   0  0  0  0  0  0  0  0  0  0  0  0
    2.2161   -0.2436   -0.2158 C   0  0  0  0  0  0  0  0  0  0  0  0
    1.1278    0.8600   -0.0927 C   0  0  0  0  0  0  0  0  0  0  0  0
   -0.0446    0.2487   -1.2408 C   0  0  0  0  0  0  0  0  0  0  0  0
   -1.3419   -0.5823   -1.6372 C   0  0  0  0  0  0  0  0  0  0  0  0
   -1.5032   -0.5089   -0.2366 C   0  0  0  0  0  0  0  0  0  0  0  0
   -0.9946   -1.3904    0.8198 C   0  0  0  0  0  0  0  0  0  0  0  0
  1  2  1  0  0  0  0
  1  8  1  0  0  0  0
  2  3  1  0  0  0  0
  3  4  1  0  0  0  0
  3  9  1  0  0  0  0
  4  5  1  0  0  0  0
  4 11  1  0  0  0  0
  5  6  1  0  0  0  0
  6  7  1  0  0  0  0
  7  8  1  0  0  0  0
  7 11  1  0  0  0  0
  8  9  1  0  0  0  0
  9 10  1  0  0  0  0
 10 11  1  0  0  0  0
M  END
