
 OpenBabel03222517363D

 11 13  0  0  0  0  0  0  0  0999 V2000
   -2.2701   -0.5344   -0.8630 C   0  0  0  0  0  0  0  0  0  0  0  0
   -2.1047    0.5702    0.2261 C   0  0  0  0  0  0  0  0  0  0  0  0
   -0.4261    1.0164    0.7686 C   0  0  0  0  0  0  0  0  0  0  0  0
   -0.5267   -0.2030    1.5596 C   0  0  0  0  0  0  0  0  0  0  0  0
   -0.1087   -0.8045   -0.0196 C   0  0  0  0  0  0  0  0  0  0  0  0
   -1.2448   -1.6125   -0.5490 C   0  0  0  0  0  0  0  0  0  0  0  0
    0.3562    0.3321   -1.4105 C   0  0  0  0  0  0  0  0  0  0  0  0
    1.4572    1.4193   -1.1161 C   0  0  0  0  0  0  0  0  0  0  0  0
    2.3854    0.6671   -0.2660 C   0  0  0  0  0  0  0  0  0  0  0  0
    1.3589    0.2031    0.7600 C   0  0  0  0  0  0  0  0  0  0  0  0
    1.1495   -1.3161    0.4489 C   0  0  0  0  0  0  0  0  0  0  0  0
  1  2  1  0  0  0  0
  1  6  1  0  0  0  0
  2  3  1  0  0  0  0
  3  4  1  0  0  0  0
  3 10  1  0  0  0  0
  4  5  1  0  0  0  0
  5  6  1  0  0  0  0
  5  7  1  0  0  0  0
  5 11  1  0  0  0  0
  7  8  1  0  0  0  0
  8  9  1  0  0  0  0
  9 10  1  0  0  0  0
 10 11  1  0  0  0  0
M  END
