
 OpenBabel03222517373D

 11 14  0  0  0  0  0  0  0  0999 V2000
   -2.5818    0.6386   -0.3954 C   0  0  0  0  0  0  0  0  0  0  0  0
   -2.4872   -0.8680   -0.6215 C   0  0  0  0  0  0  0  0  0  0  0  0
   -1.0542   -1.3205   -0.8757 C   0  0  0  0  0  0  0  0  0  0  0  0
   -0.1453   -0.9047    0.2668 C   0  0  0  0  0  0  0  0  0  0  0  0
   -0.2990    0.5610    0.6806 C   0  0  0  0  0  0  0  0  0  0  0  0
   -1.7063    1.1007    0.7526 C   0  0  0  0  0  0  0  0  0  0  0  0
    0.6804    1.3583   -0.1222 C   0  0  0  0  0  0  0  0  0  0  0  0
    1.9641    1.3569   -1.0531 C   0  0  0  0  0  0  0  0  0  0  0  0
    1.8631    0.4424    0.0037 C   0  0  0  0  0  0  0  0  0  0  0  0
    2.3285   -0.5822    0.9554 C   0  0  0  0  0  0  0  0  0  0  0  0
    1.3059   -0.9484   -0.0998 C   0  0  0  0  0  0  0  0  0  0  0  0
  1  2  1  0  0  0  0
  1  6  1  0  0  0  0
  2  3  1  0  0  0  0
  3  4  1  0  0  0  0
  4  5  1  0  0  0  0
  4 10  1  0  0  0  0
  5  6  1  0  0  0  0
  5  7  1  0  0  0  0
  7  8  1  0  0  0  0
  7 11  1  0  0  0  0
  8  9  1  0  0  0  0
  9 10  1  0  0  0  0
  9 11  1  0  0  0  0
 10 11  1  0  0  0  0
M  END
