
 OpenBabel03222517363D

 10 12  0  0  0  0  0  0  0  0999 V2000
   -0.7852   -0.0640    1.3947 C   0  0  0  0  0  0  0  0  0  0  0  0
   -1.5672   -1.2421   -0.0093 C   0  0  0  0  0  0  0  0  0  0  0  0
   -0.1382   -1.4407   -1.2518 C   0  0  0  0  0  0  0  0  0  0  0  0
    1.1179   -0.4942   -0.5988 C   0  0  0  0  0  0  0  0  0  0  0  0
    1.2422    0.1077    0.8169 C   0  0  0  0  0  0  0  0  0  0  0  0
    0.7820    1.2810    0.1244 C   0  0  0  0  0  0  0  0  0  0  0  0
   -0.4030    0.6460   -0.4239 C   0  0  0  0  0  0  0  0  0  0  0  0
    0.3843   -1.1669    0.3363 C   0  0  0  0  0  0  0  0  0  0  0  0
    0.1306   -2.1588    1.7758 C   0  0  0  0  0  0  0  0  0  0  0  0
    1.4439   -2.0676    1.2058 C   0  0  0  0  0  0  0  0  0  0  0  0
  1  2  1  0  0  0  0
  1  8  1  0  0  0  0
  2  3  1  0  0  0  0
  3  4  1  0  0  0  0
  4  5  1  0  0  0  0
  4  7  1  0  0  0  0
  4 10  1  0  0  0  0
  5  6  1  0  0  0  0
  6  7  1  0  0  0  0
  7  8  1  0  0  0  0
  7  9  1  0  0  0  0
  9 10  1  0  0  0  0
M  END
