
 OpenBabel03222517363D

 10 14  0  0  0  0  0  0  0  0999 V2000
   -1.5912    0.1579   -1.2159 C   0  0  0  0  0  0  0  0  0  0  0  0
   -1.2102    1.3591   -0.5000 C   0  0  0  0  0  0  0  0  0  0  0  0
   -0.0657    0.5001   -1.6732 C   0  0  0  0  0  0  0  0  0  0  0  0
    1.5216    0.8134   -0.7253 C   0  0  0  0  0  0  0  0  0  0  0  0
    0.3037    1.8953    0.3716 C   0  0  0  0  0  0  0  0  0  0  0  0
    0.3308    0.5420    0.7951 C   0  0  0  0  0  0  0  0  0  0  0  0
   -0.3787   -0.6248    1.0310 C   0  0  0  0  0  0  0  0  0  0  0  0
   -0.5652   -1.9207    0.3689 C   0  0  0  0  0  0  0  0  0  0  0  0
    0.8731   -1.4817    0.7347 C   0  0  0  0  0  0  0  0  0  0  0  0
    1.6147   -0.0806    0.6980 C   0  0  0  0  0  0  0  0  0  0  0  0
  1  2  1  0  0  0  0
  1  8  1  0  0  0  0
  2  3  1  0  0  0  0
  2  6  1  0  0  0  0
  3  4  1  0  0  0  0
  3  9  1  0  0  0  0
  4  5  1  0  0  0  0
  5  6  1  0  0  0  0
  5 10  1  0  0  0  0
  6  7  1  0  0  0  0
  7  8  1  0  0  0  0
  7 10  1  0  0  0  0
  8  9  1  0  0  0  0
  9 10  1  0  0  0  0
M  END
