
 OpenBabel03222517353D

  8 12  0  0  0  0  0  0  0  0999 V2000
   -0.1825   -0.4887   -1.1479 C   0  0  0  0  0  0  0  0  0  0  0  0
    0.8069   -0.6778   -2.1095 C   0  0  0  0  0  0  0  0  0  0  0  0
   -0.5282    0.6356   -1.7642 C   0  0  0  0  0  0  0  0  0  0  0  0
   -1.4105   -0.1788   -0.2741 C   0  0  0  0  0  0  0  0  0  0  0  0
   -1.6768   -1.5057   -0.8254 C   0  0  0  0  0  0  0  0  0  0  0  0
   -0.7175   -1.8590    0.2388 C   0  0  0  0  0  0  0  0  0  0  0  0
    0.4782   -2.1469   -1.0420 C   0  0  0  0  0  0  0  0  0  0  0  0
   -0.7434   -1.8271   -1.8618 C   0  0  0  0  0  0  0  0  0  0  0  0
  1  2  1  0  0  0  0
  1  3  1  0  0  0  0
  1  8  1  0  0  0  0
  2  3  1  0  0  0  0
  2  7  1  0  0  0  0
  3  4  1  0  0  0  0
  4  5  1  0  0  0  0
  4  6  1  0  0  0  0
  5  6  1  0  0  0  0
  5  8  1  0  0  0  0
  6  7  1  0  0  0  0
  7  8  1  0  0  0  0
M  END
