
 OpenBabel03222517383D

 15 17  0  0  0  0  0  0  0  0999 V2000
   -2.9412    0.3963    0.1750 C   0  0  0  0  0  0  0  0  0  0  0  0
   -1.8442    1.3210    0.6304 C   0  0  0  0  0  0  0  0  0  0  0  0
   -0.6515    0.4977    1.0187 C   0  0  0  0  0  0  0  0  0  0  0  0
   -0.0279   -0.4314   -0.1116 C   0  0  0  0  0  0  0  0  0  0  0  0
   -1.1846   -1.3573   -0.5539 C   0  0  0  0  0  0  0  0  0  0  0  0
   -2.4593   -0.5551   -0.9271 C   0  0  0  0  0  0  0  0  0  0  0  0
    0.4628    0.4332   -1.2981 C   0  0  0  0  0  0  0  0  0  0  0  0
    1.5654    1.4176   -0.9159 C   0  0  0  0  0  0  0  0  0  0  0  0
    2.7640    0.6848   -0.3790 C   0  0  0  0  0  0  0  0  0  0  0  0
    2.4226   -0.1858    0.8107 C   0  0  0  0  0  0  0  0  0  0  0  0
    2.3152    0.3921    2.2224 C   0  0  0  0  0  0  0  0  0  0  0  0
    1.8002   -0.7556    3.1402 C   0  0  0  0  0  0  0  0  0  0  0  0
    2.2369   -2.1777    2.5622 C   0  0  0  0  0  0  0  0  0  0  0  0
    1.7663   -2.4650    1.0264 C   0  0  0  0  0  0  0  0  0  0  0  0
    1.2050   -1.1213    0.5695 C   0  0  0  0  0  0  0  0  0  0  0  0
  1  2  1  0  0  0  0
  1  6  1  0  0  0  0
  2  3  1  0  0  0  0
  3  4  1  0  0  0  0
  4  5  1  0  0  0  0
  4  7  1  0  0  0  0
  4 15  1  0  0  0  0
  5  6  1  0  0  0  0
  7  8  1  0  0  0  0
  8  9  1  0  0  0  0
  9 10  1  0  0  0  0
 10 11  1  0  0  0  0
 10 15  1  0  0  0  0
 11 12  1  0  0  0  0
 12 13  1  0  0  0  0
 13 14  1  0  0  0  0
 14 15  1  0  0  0  0
M  END
