
 OpenBabel03222517363D

 10 14  0  0  0  0  0  0  0  0999 V2000
    1.7421   -0.7315    0.3884 C   0  0  0  0  0  0  0  0  0  0  0  0
    1.7840    0.7237    0.7563 C   0  0  0  0  0  0  0  0  0  0  0  0
    0.3537    1.0745    0.4070 C   0  0  0  0  0  0  0  0  0  0  0  0
    0.1078    0.8304   -1.0971 C   0  0  0  0  0  0  0  0  0  0  0  0
    0.7307   -0.6717   -0.8749 C   0  0  0  0  0  0  0  0  0  0  0  0
   -0.5351   -1.2312   -0.2718 C   0  0  0  0  0  0  0  0  0  0  0  0
   -0.6551   -0.1094    0.8883 C   0  0  0  0  0  0  0  0  0  0  0  0
   -1.9368    0.3123    0.2732 C   0  0  0  0  0  0  0  0  0  0  0  0
   -1.5608    0.7441   -1.0464 C   0  0  0  0  0  0  0  0  0  0  0  0
   -1.7535   -0.6284   -0.8869 C   0  0  0  0  0  0  0  0  0  0  0  0
  1  2  1  0  0  0  0
  1  6  1  0  0  0  0
  2  3  1  0  0  0  0
  3  4  1  0  0  0  0
  3  8  1  0  0  0  0
  4  5  1  0  0  0  0
  4 10  1  0  0  0  0
  5  6  1  0  0  0  0
  5 10  1  0  0  0  0
  6  7  1  0  0  0  0
  7  8  1  0  0  0  0
  7  9  1  0  0  0  0
  8  9  1  0  0  0  0
  9 10  1  0  0  0  0
M  END
