
 OpenBabel03222517363D

 10 12  0  0  0  0  0  0  0  0999 V2000
    2.1165   -0.2654   -0.1295 C   0  0  0  0  0  0  0  0  0  0  0  0
    1.2766    0.9539   -0.6215 C   0  0  0  0  0  0  0  0  0  0  0  0
    0.1069    0.3023    0.0631 C   0  0  0  0  0  0  0  0  0  0  0  0
    1.0431   -0.4817    0.9651 C   0  0  0  0  0  0  0  0  0  0  0  0
   -1.1171    1.0505    0.6412 C   0  0  0  0  0  0  0  0  0  0  0  0
   -1.8866   -0.1927    0.4019 C   0  0  0  0  0  0  0  0  0  0  0  0
   -2.5335   -1.1951    1.6375 C   0  0  0  0  0  0  0  0  0  0  0  0
   -1.8963   -2.1296    0.6675 C   0  0  0  0  0  0  0  0  0  0  0  0
   -3.0033   -0.8377   -0.2440 C   0  0  0  0  0  0  0  0  0  0  0  0
   -0.7900   -0.5190   -0.7980 C   0  0  0  0  0  0  0  0  0  0  0  0
  1  2  1  0  0  0  0
  1  4  1  0  0  0  0
  2  3  1  0  0  0  0
  3  4  1  0  0  0  0
  3  5  1  0  0  0  0
  3 10  1  0  0  0  0
  5  6  1  0  0  0  0
  6  7  1  0  0  0  0
  6  9  1  0  0  0  0
  6 10  1  0  0  0  0
  7  8  1  0  0  0  0
  8  9  1  0  0  0  0
M  END
