
 OpenBabel03222517373D

 11 14  0  0  0  0  0  0  0  0999 V2000
   -3.1625    0.2849    0.5535 C   0  0  0  0  0  0  0  0  0  0  0  0
   -1.7947    0.8694    0.4510 C   0  0  0  0  0  0  0  0  0  0  0  0
   -0.5904    0.3035    1.1323 C   0  0  0  0  0  0  0  0  0  0  0  0
   -0.0001   -0.5840   -0.0002 C   0  0  0  0  0  0  0  0  0  0  0  0
   -1.2509   -1.3352   -0.4557 C   0  0  0  0  0  0  0  0  0  0  0  0
   -2.2563   -0.1986   -0.5521 C   0  0  0  0  0  0  0  0  0  0  0  0
    0.5903    0.3032   -1.1329 C   0  0  0  0  0  0  0  0  0  0  0  0
    1.7944    0.8694   -0.4514 C   0  0  0  0  0  0  0  0  0  0  0  0
    3.1625    0.2850   -0.5528 C   0  0  0  0  0  0  0  0  0  0  0  0
    2.2557   -0.1983    0.5522 C   0  0  0  0  0  0  0  0  0  0  0  0
    1.2505   -1.3352    0.4555 C   0  0  0  0  0  0  0  0  0  0  0  0
  1  2  1  0  0  0  0
  1  6  1  0  0  0  0
  2  3  1  0  0  0  0
  2  6  1  0  0  0  0
  3  4  1  0  0  0  0
  4  5  1  0  0  0  0
  4  7  1  0  0  0  0
  4 11  1  0  0  0  0
  5  6  1  0  0  0  0
  7  8  1  0  0  0  0
  8  9  1  0  0  0  0
  8 10  1  0  0  0  0
  9 10  1  0  0  0  0
 10 11  1  0  0  0  0
M  END
