
 OpenBabel03222517353D

 10 12  0  0  0  0  0  0  0  0999 V2000
   -1.8075    0.3921   -0.2347 C   0  0  0  0  0  0  0  0  0  0  0  0
   -1.1835    1.8653   -0.4387 C   0  0  0  0  0  0  0  0  0  0  0  0
    0.3444    2.0992   -0.1403 C   0  0  0  0  0  0  0  0  0  0  0  0
    1.6558    1.2251   -0.4015 C   0  0  0  0  0  0  0  0  0  0  0  0
    2.2588   -0.1295   -0.3121 C   0  0  0  0  0  0  0  0  0  0  0  0
    1.1970   -1.2743   -0.2896 C   0  0  0  0  0  0  0  0  0  0  0  0
   -0.6330   -1.0766   -0.5020 C   0  0  0  0  0  0  0  0  0  0  0  0
   -0.8820   -1.3482    1.0303 C   0  0  0  0  0  0  0  0  0  0  0  0
    0.0015    0.0401    1.4157 C   0  0  0  0  0  0  0  0  0  0  0  0
    0.9130    1.2296    0.9574 C   0  0  0  0  0  0  0  0  0  0  0  0
  1  2  1  0  0  0  0
  1  9  1  0  0  0  0
  2  3  1  0  0  0  0
  3  4  1  0  0  0  0
  3  7  1  0  0  0  0
  4  5  1  0  0  0  0
  4 10  1  0  0  0  0
  5  6  1  0  0  0  0
  6  7  1  0  0  0  0
  7  8  1  0  0  0  0
  8  9  1  0  0  0  0
  9 10  1  0  0  0  0
M  END
