
 OpenBabel03222517383D

 15 19  0  0  0  0  0  0  0  0999 V2000
    2.9733   -0.9170    0.6022 C   0  0  0  0  0  0  0  0  0  0  0  0
    3.3567    0.1317   -0.4501 C   0  0  0  0  0  0  0  0  0  0  0  0
    3.4804   -1.3575   -1.2721 C   0  0  0  0  0  0  0  0  0  0  0  0
    2.0896   -1.6061   -0.5368 C   0  0  0  0  0  0  0  0  0  0  0  0
    0.9184   -1.0341    0.1957 C   0  0  0  0  0  0  0  0  0  0  0  0
   -0.3712   -1.7479   -0.0338 C   0  0  0  0  0  0  0  0  0  0  0  0
   -1.2034   -0.5202   -0.1836 C   0  0  0  0  0  0  0  0  0  0  0  0
   -2.4448   -0.6333    0.6350 C   0  0  0  0  0  0  0  0  0  0  0  0
   -2.4578    0.4427    1.7448 C   0  0  0  0  0  0  0  0  0  0  0  0
   -2.7835    1.4490    0.5329 C   0  0  0  0  0  0  0  0  0  0  0  0
   -3.4521    0.2141   -0.1510 C   0  0  0  0  0  0  0  0  0  0  0  0
   -1.5301    1.8627   -0.3314 C   0  0  0  0  0  0  0  0  0  0  0  0
   -0.4647    0.8564    0.1547 C   0  0  0  0  0  0  0  0  0  0  0  0
    0.8498    0.5013   -0.3194 C   0  0  0  0  0  0  0  0  0  0  0  0
    2.1860    1.1790    0.0955 C   0  0  0  0  0  0  0  0  0  0  0  0
  1  2  1  0  0  0  0
  1  4  1  0  0  0  0
  2  3  1  0  0  0  0
  2 15  1  0  0  0  0
  3  4  1  0  0  0  0
  4  5  1  0  0  0  0
  5  6  1  0  0  0  0
  5 14  1  0  0  0  0
  6  7  1  0  0  0  0
  7  8  1  0  0  0  0
  7 13  1  0  0  0  0
  8  9  1  0  0  0  0
  8 11  1  0  0  0  0
  9 10  1  0  0  0  0
 10 11  1  0  0  0  0
 10 12  1  0  0  0  0
 12 13  1  0  0  0  0
 13 14  1  0  0  0  0
 14 15  1  0  0  0  0
M  END
