
 OpenBabel03222517383D

 12 17  0  0  0  0  0  0  0  0999 V2000
    1.8918   -0.9515    0.8343 C   0  0  0  0  0  0  0  0  0  0  0  0
    0.4760   -0.6789    0.8818 C   0  0  0  0  0  0  0  0  0  0  0  0
    0.5954   -0.3377    2.4526 C   0  0  0  0  0  0  0  0  0  0  0  0
    2.0490   -0.8355    2.9997 C   0  0  0  0  0  0  0  0  0  0  0  0
    1.8460   -2.0869    2.2194 C   0  0  0  0  0  0  0  0  0  0  0  0
    0.2429   -2.5416    2.9599 C   0  0  0  0  0  0  0  0  0  0  0  0
   -1.2442   -3.6084    2.5306 C   0  0  0  0  0  0  0  0  0  0  0  0
   -2.4935   -2.9338    1.9950 C   0  0  0  0  0  0  0  0  0  0  0  0
   -1.7838   -1.6436    2.3575 C   0  0  0  0  0  0  0  0  0  0  0  0
   -0.9384   -2.4288    3.4012 C   0  0  0  0  0  0  0  0  0  0  0  0
   -0.5291   -2.7385    1.8149 C   0  0  0  0  0  0  0  0  0  0  0  0
   -0.4547   -1.1418    3.0927 C   0  0  0  0  0  0  0  0  0  0  0  0
  1  2  1  0  0  0  0
  1  5  1  0  0  0  0
  2  3  1  0  0  0  0
  3  4  1  0  0  0  0
  3 12  1  0  0  0  0
  4  5  1  0  0  0  0
  5  6  1  0  0  0  0
  6  7  1  0  0  0  0
  6 11  1  0  0  0  0
  6 12  1  0  0  0  0
  7  8  1  0  0  0  0
  7 11  1  0  0  0  0
  8  9  1  0  0  0  0
  9 10  1  0  0  0  0
  9 12  1  0  0  0  0
 10 11  1  0  0  0  0
 10 12  1  0  0  0  0
M  END
