
 OpenBabel03222517373D

 14 16  0  0  0  0  0  0  0  0999 V2000
    3.0606   -0.7968    1.0085 C   0  0  0  0  0  0  0  0  0  0  0  0
    2.8900    0.3680    0.0204 C   0  0  0  0  0  0  0  0  0  0  0  0
    1.8266    1.3111    0.7730 C   0  0  0  0  0  0  0  0  0  0  0  0
    0.3023    0.2893    0.9839 C   0  0  0  0  0  0  0  0  0  0  0  0
    0.8248   -1.3158    0.8878 C   0  0  0  0  0  0  0  0  0  0  0  0
    2.1585   -1.9725    1.1066 C   0  0  0  0  0  0  0  0  0  0  0  0
    0.8645   -1.6705   -0.6382 C   0  0  0  0  0  0  0  0  0  0  0  0
   -0.5053   -2.0395   -0.6594 C   0  0  0  0  0  0  0  0  0  0  0  0
   -1.1473   -0.5461   -0.8830 C   0  0  0  0  0  0  0  0  0  0  0  0
   -2.3689   -1.2228   -0.0685 C   0  0  0  0  0  0  0  0  0  0  0  0
   -2.9915    0.0667   -0.0341 C   0  0  0  0  0  0  0  0  0  0  0  0
   -1.6056    0.7455    0.9058 C   0  0  0  0  0  0  0  0  0  0  0  0
   -1.9441    1.9165   -0.0041 C   0  0  0  0  0  0  0  0  0  0  0  0
   -0.7750    1.3699   -0.6987 C   0  0  0  0  0  0  0  0  0  0  0  0
  1  2  1  0  0  0  0
  1  7  1  0  0  0  0
  2  3  1  0  0  0  0
  3  4  1  0  0  0  0
  4  5  1  0  0  0  0
  4 14  1  0  0  0  0
  5  6  1  0  0  0  0
  6  7  1  0  0  0  0
  6  8  1  0  0  0  0
  8  9  1  0  0  0  0
  9 10  1  0  0  0  0
  9 14  1  0  0  0  0
 10 11  1  0  0  0  0
 11 12  1  0  0  0  0
 12 13  1  0  0  0  0
 13 14  1  0  0  0  0
M  END
