
 OpenBabel03222517373D

 11 14  0  0  0  0  0  0  0  0999 V2000
   -1.1778    0.4276   -1.2794 C   0  0  0  0  0  0  0  0  0  0  0  0
   -1.5643    1.3704   -0.0917 C   0  0  0  0  0  0  0  0  0  0  0  0
   -0.3456    1.0436    0.7872 C   0  0  0  0  0  0  0  0  0  0  0  0
   -0.8040   -0.4115    1.2079 C   0  0  0  0  0  0  0  0  0  0  0  0
   -0.1263   -1.3534    0.3264 C   0  0  0  0  0  0  0  0  0  0  0  0
    0.9700   -2.0594    0.8834 C   0  0  0  0  0  0  0  0  0  0  0  0
    1.8466   -1.2477    0.1232 C   0  0  0  0  0  0  0  0  0  0  0  0
    2.3659    0.0714    0.5673 C   0  0  0  0  0  0  0  0  0  0  0  0
    1.0485    0.7692   -0.0578 C   0  0  0  0  0  0  0  0  0  0  0  0
    0.5896    0.5019   -1.4775 C   0  0  0  0  0  0  0  0  0  0  0  0
    0.6706    2.1008    0.2485 C   0  0  0  0  0  0  0  0  0  0  0  0
  1  2  1  0  0  0  0
  1  5  1  0  0  0  0
  2  3  1  0  0  0  0
  3  4  1  0  0  0  0
  3 11  1  0  0  0  0
  4  5  1  0  0  0  0
  4  6  1  0  0  0  0
  6  7  1  0  0  0  0
  6 11  1  0  0  0  0
  7  8  1  0  0  0  0
  7  9  1  0  0  0  0
  8  9  1  0  0  0  0
  9 10  1  0  0  0  0
 10 11  1  0  0  0  0
M  END
