
 OpenBabel03222517363D

 11 14  0  0  0  0  0  0  0  0999 V2000
    1.5624   -1.5764   -0.5041 C   0  0  0  0  0  0  0  0  0  0  0  0
    2.4861   -0.0297    0.0742 C   0  0  0  0  0  0  0  0  0  0  0  0
    1.4014    1.4305    0.6138 C   0  0  0  0  0  0  0  0  0  0  0  0
    0.4964    1.7016   -0.4391 C   0  0  0  0  0  0  0  0  0  0  0  0
    0.4372    0.3741   -0.8692 C   0  0  0  0  0  0  0  0  0  0  0  0
    0.4272   -0.5640    0.8488 C   0  0  0  0  0  0  0  0  0  0  0  0
    0.1982   -1.8315    0.2591 C   0  0  0  0  0  0  0  0  0  0  0  0
   -1.3147   -1.4268   -0.0123 C   0  0  0  0  0  0  0  0  0  0  0  0
   -2.1938   -0.4371   -0.7872 C   0  0  0  0  0  0  0  0  0  0  0  0
   -1.7442    0.2529    0.4588 C   0  0  0  0  0  0  0  0  0  0  0  0
   -0.4899    1.6110    0.5706 C   0  0  0  0  0  0  0  0  0  0  0  0
  1  2  1  0  0  0  0
  1  7  1  0  0  0  0
  2  3  1  0  0  0  0
  3  4  1  0  0  0  0
  3 11  1  0  0  0  0
  4  5  1  0  0  0  0
  4 11  1  0  0  0  0
  5  6  1  0  0  0  0
  6  7  1  0  0  0  0
  7  8  1  0  0  0  0
  8  9  1  0  0  0  0
  8 10  1  0  0  0  0
  9 10  1  0  0  0  0
 10 11  1  0  0  0  0
M  END
