
 OpenBabel03222517383D

 12 15  0  0  0  0  0  0  0  0999 V2000
   -2.7479   -0.2463   -0.5584 C   0  0  0  0  0  0  0  0  0  0  0  0
   -2.2598    1.0844    0.0338 C   0  0  0  0  0  0  0  0  0  0  0  0
   -0.9795    0.7280    0.7412 C   0  0  0  0  0  0  0  0  0  0  0  0
   -0.8262   -0.8753    0.6986 C   0  0  0  0  0  0  0  0  0  0  0  0
   -1.5620   -1.2178   -0.6037 C   0  0  0  0  0  0  0  0  0  0  0  0
    0.7178   -0.6113    0.9133 C   0  0  0  0  0  0  0  0  0  0  0  0
    2.3265   -1.0286    0.3654 C   0  0  0  0  0  0  0  0  0  0  0  0
    1.6322   -0.5684   -0.7486 C   0  0  0  0  0  0  0  0  0  0  0  0
    1.9142    1.0667    0.4315 C   0  0  0  0  0  0  0  0  0  0  0  0
    1.7803    1.3065   -0.9290 C   0  0  0  0  0  0  0  0  0  0  0  0
    3.1600    0.0949   -0.5269 C   0  0  0  0  0  0  0  0  0  0  0  0
    0.1732    0.8083   -0.3468 C   0  0  0  0  0  0  0  0  0  0  0  0
  1  2  1  0  0  0  0
  1  5  1  0  0  0  0
  2  3  1  0  0  0  0
  3  4  1  0  0  0  0
  3 12  1  0  0  0  0
  4  5  1  0  0  0  0
  4  6  1  0  0  0  0
  6  7  1  0  0  0  0
  6 12  1  0  0  0  0
  7  8  1  0  0  0  0
  7 11  1  0  0  0  0
  8  9  1  0  0  0  0
  9 10  1  0  0  0  0
 10 11  1  0  0  0  0
 10 12  1  0  0  0  0
M  END
