
 OpenBabel03222517363D

 12 14  0  0  0  0  0  0  0  0999 V2000
   -2.9558   -1.1775    0.2626 C   0  0  0  0  0  0  0  0  0  0  0  0
   -2.1293   -2.3642   -0.2628 C   0  0  0  0  0  0  0  0  0  0  0  0
   -0.7354   -2.3031    0.3873 C   0  0  0  0  0  0  0  0  0  0  0  0
   -0.1471   -1.0399   -0.2287 C   0  0  0  0  0  0  0  0  0  0  0  0
   -1.0266    0.2224    0.2286 C   0  0  0  0  0  0  0  0  0  0  0  0
   -2.4150    0.1088   -0.3874 C   0  0  0  0  0  0  0  0  0  0  0  0
    0.1473    1.0400   -0.2287 C   0  0  0  0  0  0  0  0  0  0  0  0
    0.7353    2.3028    0.3875 C   0  0  0  0  0  0  0  0  0  0  0  0
    2.1294    2.3641   -0.2624 C   0  0  0  0  0  0  0  0  0  0  0  0
    2.9558    1.1772    0.2629 C   0  0  0  0  0  0  0  0  0  0  0  0
    2.4151   -0.1090   -0.3874 C   0  0  0  0  0  0  0  0  0  0  0  0
    1.0263   -0.2227    0.2285 C   0  0  0  0  0  0  0  0  0  0  0  0
  1  2  1  0  0  0  0
  1  6  1  0  0  0  0
  2  3  1  0  0  0  0
  3  4  1  0  0  0  0
  4  5  1  0  0  0  0
  4 12  1  0  0  0  0
  5  6  1  0  0  0  0
  5  7  1  0  0  0  0
  7  8  1  0  0  0  0
  7 12  1  0  0  0  0
  8  9  1  0  0  0  0
  9 10  1  0  0  0  0
 10 11  1  0  0  0  0
 11 12  1  0  0  0  0
M  END
