
 OpenBabel03222517383D

 15 17  0  0  0  0  0  0  0  0999 V2000
    1.2298   -0.1233   -0.2172 C   0  0  0  0  0  0  0  0  0  0  0  0
    1.2118   -1.3550   -1.0903 C   0  0  0  0  0  0  0  0  0  0  0  0
    1.4304   -2.6167   -0.2703 C   0  0  0  0  0  0  0  0  0  0  0  0
    0.6925   -2.6856    1.0826 C   0  0  0  0  0  0  0  0  0  0  0  0
   -0.8418   -2.5630    1.0258 C   0  0  0  0  0  0  0  0  0  0  0  0
   -1.5953   -1.6101    0.0192 C   0  0  0  0  0  0  0  0  0  0  0  0
   -1.3856   -0.0869   -0.3136 C   0  0  0  0  0  0  0  0  0  0  0  0
   -0.0369    0.6683   -0.3765 C   0  0  0  0  0  0  0  0  0  0  0  0
   -1.7330   -2.9049   -0.9125 C   0  0  0  0  0  0  0  0  0  0  0  0
   -1.6325   -3.8051    0.3863 C   0  0  0  0  0  0  0  0  0  0  0  0
   -0.7869   -5.1015    0.3948 C   0  0  0  0  0  0  0  0  0  0  0  0
   -1.4940   -6.2833   -0.2434 C   0  0  0  0  0  0  0  0  0  0  0  0
   -2.7824   -6.5768    0.5017 C   0  0  0  0  0  0  0  0  0  0  0  0
   -3.6844   -5.3503    0.4473 C   0  0  0  0  0  0  0  0  0  0  0  0
   -3.0102   -4.1048    1.0420 C   0  0  0  0  0  0  0  0  0  0  0  0
  1  2  1  0  0  0  0
  1  8  1  0  0  0  0
  2  3  1  0  0  0  0
  3  4  1  0  0  0  0
  4  5  1  0  0  0  0
  5  6  1  0  0  0  0
  5 10  1  0  0  0  0
  6  7  1  0  0  0  0
  6  9  1  0  0  0  0
  7  8  1  0  0  0  0
  9 10  1  0  0  0  0
 10 11  1  0  0  0  0
 10 15  1  0  0  0  0
 11 12  1  0  0  0  0
 12 13  1  0  0  0  0
 13 14  1  0  0  0  0
 14 15  1  0  0  0  0
M  END
