
 OpenBabel03222517383D

 13 16  0  0  0  0  0  0  0  0999 V2000
   -1.2295    0.2081   -1.7347 C   0  0  0  0  0  0  0  0  0  0  0  0
   -2.2309    1.0724   -0.8901 C   0  0  0  0  0  0  0  0  0  0  0  0
   -1.5165    1.3184    0.4075 C   0  0  0  0  0  0  0  0  0  0  0  0
   -0.2739    0.2033    0.3466 C   0  0  0  0  0  0  0  0  0  0  0  0
   -1.0188   -0.7958    1.2876 C   0  0  0  0  0  0  0  0  0  0  0  0
   -0.2179   -1.9203    1.2460 C   0  0  0  0  0  0  0  0  0  0  0  0
    1.0766   -2.1372    0.6738 C   0  0  0  0  0  0  0  0  0  0  0  0
    0.9867   -0.9854    1.9104 C   0  0  0  0  0  0  0  0  0  0  0  0
    0.9703    0.9408    1.7876 C   0  0  0  0  0  0  0  0  0  0  0  0
    0.8901    1.0495    0.3846 C   0  0  0  0  0  0  0  0  0  0  0  0
    1.0022    1.9341   -0.7359 C   0  0  0  0  0  0  0  0  0  0  0  0
    0.4590    0.8859   -1.9466 C   0  0  0  0  0  0  0  0  0  0  0  0
    1.7538   -0.0159    0.0432 C   0  0  0  0  0  0  0  0  0  0  0  0
  1  2  1  0  0  0  0
  1  6  1  0  0  0  0
  2  3  1  0  0  0  0
  3  4  1  0  0  0  0
  4  5  1  0  0  0  0
  4 10  1  0  0  0  0
  5  6  1  0  0  0  0
  5  7  1  0  0  0  0
  7  8  1  0  0  0  0
  7 13  1  0  0  0  0
  8  9  1  0  0  0  0
  9 10  1  0  0  0  0
 10 11  1  0  0  0  0
 11 12  1  0  0  0  0
 11 13  1  0  0  0  0
 12 13  1  0  0  0  0
M  END
