
 OpenBabel03222517363D

 12 15  0  0  0  0  0  0  0  0999 V2000
   -2.5280   -0.8993    0.3766 C   0  0  0  0  0  0  0  0  0  0  0  0
   -1.7199   -2.0594   -0.3768 C   0  0  0  0  0  0  0  0  0  0  0  0
   -0.5399   -1.2980    0.3326 C   0  0  0  0  0  0  0  0  0  0  0  0
   -1.4046   -0.0564   -0.3326 C   0  0  0  0  0  0  0  0  0  0  0  0
   -0.8542    1.1164    0.3326 C   0  0  0  0  0  0  0  0  0  0  0  0
   -0.9235    2.5191   -0.3765 C   0  0  0  0  0  0  0  0  0  0  0  0
    0.4851    2.6386    0.3770 C   0  0  0  0  0  0  0  0  0  0  0  0
    0.6534    1.2445   -0.3325 C   0  0  0  0  0  0  0  0  0  0  0  0
    1.3938    0.1813    0.3325 C   0  0  0  0  0  0  0  0  0  0  0  0
    2.6432   -0.4599   -0.3769 C   0  0  0  0  0  0  0  0  0  0  0  0
    2.0427   -1.7397    0.3767 C   0  0  0  0  0  0  0  0  0  0  0  0
    0.7510   -1.1884   -0.3326 C   0  0  0  0  0  0  0  0  0  0  0  0
  1  2  1  0  0  0  0
  1  4  1  0  0  0  0
  2  3  1  0  0  0  0
  3  4  1  0  0  0  0
  3 12  1  0  0  0  0
  4  5  1  0  0  0  0
  5  6  1  0  0  0  0
  5  8  1  0  0  0  0
  6  7  1  0  0  0  0
  7  8  1  0  0  0  0
  8  9  1  0  0  0  0
  9 10  1  0  0  0  0
  9 12  1  0  0  0  0
 10 11  1  0  0  0  0
 11 12  1  0  0  0  0
M  END
