
 OpenBabel03222517373D

 14 16  0  0  0  0  0  0  0  0999 V2000
   -0.8513    1.2157    1.5572 C   0  0  0  0  0  0  0  0  0  0  0  0
   -0.0085    2.4653    0.3870 C   0  0  0  0  0  0  0  0  0  0  0  0
    1.4500    2.2387    0.4413 C   0  0  0  0  0  0  0  0  0  0  0  0
    1.6397    1.3203   -0.7865 C   0  0  0  0  0  0  0  0  0  0  0  0
    0.9303    0.0056   -0.4610 C   0  0  0  0  0  0  0  0  0  0  0  0
   -0.8195    0.2706   -0.5686 C   0  0  0  0  0  0  0  0  0  0  0  0
   -2.4270    0.6618   -0.2743 C   0  0  0  0  0  0  0  0  0  0  0  0
   -1.6195    0.5402   -1.7888 C   0  0  0  0  0  0  0  0  0  0  0  0
   -0.3452   -1.0392   -1.0801 C   0  0  0  0  0  0  0  0  0  0  0  0
   -1.6004   -1.7588    0.3190 C   0  0  0  0  0  0  0  0  0  0  0  0
   -1.0298   -0.8369    1.5022 C   0  0  0  0  0  0  0  0  0  0  0  0
    0.4675   -2.5039   -0.8103 C   0  0  0  0  0  0  0  0  0  0  0  0
    1.6618   -2.1043    0.0860 C   0  0  0  0  0  0  0  0  0  0  0  0
    2.3613   -0.8393    0.1154 C   0  0  0  0  0  0  0  0  0  0  0  0
  1  2  1  0  0  0  0
  1  8  1  0  0  0  0
  2  3  1  0  0  0  0
  3  4  1  0  0  0  0
  4  5  1  0  0  0  0
  5  6  1  0  0  0  0
  5 14  1  0  0  0  0
  6  7  1  0  0  0  0
  6  9  1  0  0  0  0
  7  8  1  0  0  0  0
  9 10  1  0  0  0  0
  9 14  1  0  0  0  0
 10 11  1  0  0  0  0
 11 12  1  0  0  0  0
 12 13  1  0  0  0  0
 13 14  1  0  0  0  0
M  END
