
 OpenBabel03222517363D

 13 15  0  0  0  0  0  0  0  0999 V2000
   -2.9348    0.6957    0.3446 C   0  0  0  0  0  0  0  0  0  0  0  0
   -1.6803    1.4457    0.8107 C   0  0  0  0  0  0  0  0  0  0  0  0
   -0.4922    0.5232    1.1298 C   0  0  0  0  0  0  0  0  0  0  0  0
   -0.2068   -0.4213   -0.1253 C   0  0  0  0  0  0  0  0  0  0  0  0
    0.3911    0.3791   -1.2869 C   0  0  0  0  0  0  0  0  0  0  0  0
    1.5976    1.1307   -0.7843 C   0  0  0  0  0  0  0  0  0  0  0  0
    2.5544    0.0784   -0.1875 C   0  0  0  0  0  0  0  0  0  0  0  0
    1.8782   -1.0895    0.7656 C   0  0  0  0  0  0  0  0  0  0  0  0
    0.6030   -1.7870    0.0643 C   0  0  0  0  0  0  0  0  0  0  0  0
   -0.7499   -2.9504    0.3649 C   0  0  0  0  0  0  0  0  0  0  0  0
   -1.6442   -1.9014    0.9502 C   0  0  0  0  0  0  0  0  0  0  0  0
   -1.4865   -1.0715   -0.3871 C   0  0  0  0  0  0  0  0  0  0  0  0
   -2.6381   -0.2105   -0.8039 C   0  0  0  0  0  0  0  0  0  0  0  0
  1  2  1  0  0  0  0
  1 13  1  0  0  0  0
  2  3  1  0  0  0  0
  3  4  1  0  0  0  0
  4  5  1  0  0  0  0
  4  9  1  0  0  0  0
  4 12  1  0  0  0  0
  5  6  1  0  0  0  0
  6  7  1  0  0  0  0
  7  8  1  0  0  0  0
  8  9  1  0  0  0  0
  9 10  1  0  0  0  0
 10 11  1  0  0  0  0
 11 12  1  0  0  0  0
 12 13  1  0  0  0  0
M  END
