
 OpenBabel03222517363D

 11 13  0  0  0  0  0  0  0  0999 V2000
   -2.4590    0.6741    0.2427 C   0  0  0  0  0  0  0  0  0  0  0  0
   -2.5054   -0.7729   -0.2211 C   0  0  0  0  0  0  0  0  0  0  0  0
   -1.2488   -1.5169    0.2538 C   0  0  0  0  0  0  0  0  0  0  0  0
    0.0478   -0.8671   -0.2159 C   0  0  0  0  0  0  0  0  0  0  0  0
    1.3158   -1.5162    0.2734 C   0  0  0  0  0  0  0  0  0  0  0  0
    2.5647   -0.7591   -0.1782 C   0  0  0  0  0  0  0  0  0  0  0  0
    2.4758    0.6960    0.2708 C   0  0  0  0  0  0  0  0  0  0  0  0
    1.2788    1.4491   -0.3246 C   0  0  0  0  0  0  0  0  0  0  0  0
    0.0050    0.6250   -0.4987 C   0  0  0  0  0  0  0  0  0  0  0  0
   -1.2819    1.4216   -0.3782 C   0  0  0  0  0  0  0  0  0  0  0  0
    0.0832   -0.3988   -1.6545 C   0  0  0  0  0  0  0  0  0  0  0  0
  1  2  1  0  0  0  0
  1 10  1  0  0  0  0
  2  3  1  0  0  0  0
  3  4  1  0  0  0  0
  4  5  1  0  0  0  0
  4  9  1  0  0  0  0
  4 11  1  0  0  0  0
  5  6  1  0  0  0  0
  6  7  1  0  0  0  0
  7  8  1  0  0  0  0
  8  9  1  0  0  0  0
  9 10  1  0  0  0  0
  9 11  1  0  0  0  0
M  END
