
 OpenBabel03222517353D

  5  5  0  0  0  0  0  0  0  0999 V2000
    1.2499   -0.0894    0.2323 C   0  0  0  0  0  0  0  0  0  0  0  0
    0.5002    1.1440   -0.2400 C   0  0  0  0  0  0  0  0  0  0  0  0
   -0.9481    0.8440    0.1199 C   0  0  0  0  0  0  0  0  0  0  0  0
   -1.0870   -0.6765    0.0461 C   0  0  0  0  0  0  0  0  0  0  0  0
    0.3216   -1.2264   -0.1625 C   0  0  0  0  0  0  0  0  0  0  0  0
  1  2  1  0  0  0  0
  1  5  1  0  0  0  0
  2  3  1  0  0  0  0
  3  4  1  0  0  0  0
  4  5  1  0  0  0  0
M  END
