
 OpenBabel03222517383D

 15 19  0  0  0  0  0  0  0  0999 V2000
   -1.9395   -1.1121   -0.0821 C   0  0  0  0  0  0  0  0  0  0  0  0
   -2.1052    0.3155    0.0506 C   0  0  0  0  0  0  0  0  0  0  0  0
   -0.5012    1.0793    0.5807 C   0  0  0  0  0  0  0  0  0  0  0  0
    0.2160    1.4372   -0.8983 C   0  0  0  0  0  0  0  0  0  0  0  0
   -1.0524    1.7882   -1.6393 C   0  0  0  0  0  0  0  0  0  0  0  0
   -1.7050    2.4259    0.0364 C   0  0  0  0  0  0  0  0  0  0  0  0
   -1.3326    1.3588    1.7963 C   0  0  0  0  0  0  0  0  0  0  0  0
    0.1306    0.7531    1.8152 C   0  0  0  0  0  0  0  0  0  0  0  0
    0.9479   -0.0122    0.8299 C   0  0  0  0  0  0  0  0  0  0  0  0
    0.4105   -1.4966    0.5454 C   0  0  0  0  0  0  0  0  0  0  0  0
   -0.5692   -1.5093   -0.5989 C   0  0  0  0  0  0  0  0  0  0  0  0
    0.0396   -0.7951   -1.8196 C   0  0  0  0  0  0  0  0  0  0  0  0
    0.8599    0.4519   -1.7181 C   0  0  0  0  0  0  0  0  0  0  0  0
    1.0249    1.3004   -0.5557 C   0  0  0  0  0  0  0  0  0  0  0  0
   -0.3234    3.1361   -0.6489 C   0  0  0  0  0  0  0  0  0  0  0  0
  1  2  1  0  0  0  0
  1 11  1  0  0  0  0
  2  3  1  0  0  0  0
  3  4  1  0  0  0  0
  3  8  1  0  0  0  0
  4  5  1  0  0  0  0
  4 13  1  0  0  0  0
  5  6  1  0  0  0  0
  6  7  1  0  0  0  0
  6 15  1  0  0  0  0
  7  8  1  0  0  0  0
  8  9  1  0  0  0  0
  9 10  1  0  0  0  0
  9 14  1  0  0  0  0
 10 11  1  0  0  0  0
 11 12  1  0  0  0  0
 12 13  1  0  0  0  0
 13 14  1  0  0  0  0
 14 15  1  0  0  0  0
M  END
