
 OpenBabel03222517353D

 13 14  0  0  0  0  0  0  0  0999 V2000
    2.3958   -0.6643    0.4809 C   0  0  0  0  0  0  0  0  0  0  0  0
    2.9263    0.5650   -0.2638 C   0  0  0  0  0  0  0  0  0  0  0  0
    2.2970    1.8628    0.2674 C   0  0  0  0  0  0  0  0  0  0  0  0
    0.9553    2.1542   -0.4297 C   0  0  0  0  0  0  0  0  0  0  0  0
   -0.2709    1.9842    0.4975 C   0  0  0  0  0  0  0  0  0  0  0  0
   -1.3891    1.1494   -0.1629 C   0  0  0  0  0  0  0  0  0  0  0  0
   -2.7583    1.6647    0.2407 C   0  0  0  0  0  0  0  0  0  0  0  0
   -3.2534    0.3540   -0.3861 C   0  0  0  0  0  0  0  0  0  0  0  0
   -1.9663   -0.3691    0.2825 C   0  0  0  0  0  0  0  0  0  0  0  0
   -0.8346   -1.1658   -0.3705 C   0  0  0  0  0  0  0  0  0  0  0  0
   -0.5093   -2.6129    0.0113 C   0  0  0  0  0  0  0  0  0  0  0  0
    1.0210   -2.7928    0.2491 C   0  0  0  0  0  0  0  0  0  0  0  0
    1.9199   -1.7672   -0.4863 C   0  0  0  0  0  0  0  0  0  0  0  0
  1  2  1  0  0  0  0
  1 13  1  0  0  0  0
  2  3  1  0  0  0  0
  3  4  1  0  0  0  0
  4  5  1  0  0  0  0
  5  6  1  0  0  0  0
  6  7  1  0  0  0  0
  7  8  1  0  0  0  0
  7  9  1  0  0  0  0
  8  9  1  0  0  0  0
  9 10  1  0  0  0  0
 10 11  1  0  0  0  0
 11 12  1  0  0  0  0
 12 13  1  0  0  0  0
M  END
