
 OpenBabel03222517373D

 11 14  0  0  0  0  0  0  0  0999 V2000
   -2.2494   -0.2984   -1.1323 C   0  0  0  0  0  0  0  0  0  0  0  0
   -1.5437   -1.4486   -0.2748 C   0  0  0  0  0  0  0  0  0  0  0  0
   -0.0248   -1.2996   -0.5285 C   0  0  0  0  0  0  0  0  0  0  0  0
    0.9561   -1.1748    0.7082 C   0  0  0  0  0  0  0  0  0  0  0  0
    2.0114    0.0037    0.5943 C   0  0  0  0  0  0  0  0  0  0  0  0
    2.7076    0.4053   -0.6079 C   0  0  0  0  0  0  0  0  0  0  0  0
    1.5185    1.2318   -0.1517 C   0  0  0  0  0  0  0  0  0  0  0  0
    0.0954    1.0341   -0.3995 C   0  0  0  0  0  0  0  0  0  0  0  0
   -0.0182   -0.1045   -1.4351 C   0  0  0  0  0  0  0  0  0  0  0  0
   -1.2523    0.1193   -2.2108 C   0  0  0  0  0  0  0  0  0  0  0  0
    0.6159   -1.4424   -1.8530 C   0  0  0  0  0  0  0  0  0  0  0  0
  1  2  1  0  0  0  0
  1  8  1  0  0  0  0
  2  3  1  0  0  0  0
  3  4  1  0  0  0  0
  3  9  1  0  0  0  0
  4  5  1  0  0  0  0
  4  6  1  0  0  0  0
  4  7  1  0  0  0  0
  5  6  1  0  0  0  0
  7  8  1  0  0  0  0
  8  9  1  0  0  0  0
  9 10  1  0  0  0  0
  9 11  1  0  0  0  0
 10 11  1  0  0  0  0
M  END
