
 OpenBabel03222517383D

 15 18  0  0  0  0  0  0  0  0999 V2000
    1.6501   -1.0069   -0.1394 C   0  0  0  0  0  0  0  0  0  0  0  0
    1.1181   -1.8878    0.9531 C   0  0  0  0  0  0  0  0  0  0  0  0
    1.2820   -1.2777    2.3739 C   0  0  0  0  0  0  0  0  0  0  0  0
    0.4119    0.0524    2.7184 C   0  0  0  0  0  0  0  0  0  0  0  0
   -0.5317   -0.2234    1.5585 C   0  0  0  0  0  0  0  0  0  0  0  0
    0.3244   -0.6284   -0.3944 C   0  0  0  0  0  0  0  0  0  0  0  0
   -1.4267    1.0897    1.5793 C   0  0  0  0  0  0  0  0  0  0  0  0
   -0.7543    0.6793    0.5019 C   0  0  0  0  0  0  0  0  0  0  0  0
    1.1048    1.2022    1.2550 C   0  0  0  0  0  0  0  0  0  0  0  0
    0.4588    1.6451    2.4254 C   0  0  0  0  0  0  0  0  0  0  0  0
   -0.4904    2.2456    1.3350 C   0  0  0  0  0  0  0  0  0  0  0  0
    0.2434    2.3867   -0.3679 C   0  0  0  0  0  0  0  0  0  0  0  0
   -0.1378    3.6097   -0.9701 C   0  0  0  0  0  0  0  0  0  0  0  0
   -0.4839    4.3507    0.2878 C   0  0  0  0  0  0  0  0  0  0  0  0
   -1.1538    3.5343    1.4154 C   0  0  0  0  0  0  0  0  0  0  0  0
  1  2  1  0  0  0  0
  1  6  1  0  0  0  0
  2  3  1  0  0  0  0
  3  4  1  0  0  0  0
  4  5  1  0  0  0  0
  4 10  1  0  0  0  0
  5  6  1  0  0  0  0
  5  7  1  0  0  0  0
  7  8  1  0  0  0  0
  7 11  1  0  0  0  0
  8  9  1  0  0  0  0
  9 10  1  0  0  0  0
 10 11  1  0  0  0  0
 11 12  1  0  0  0  0
 11 15  1  0  0  0  0
 12 13  1  0  0  0  0
 13 14  1  0  0  0  0
 14 15  1  0  0  0  0
M  END
