
 OpenBabel03222517363D

 13 14  0  0  0  0  0  0  0  0999 V2000
   -1.5811    0.1971   -0.0111 C   0  0  0  0  0  0  0  0  0  0  0  0
   -1.7688   -1.2664   -0.5208 C   0  0  0  0  0  0  0  0  0  0  0  0
   -0.4638   -1.6958   -1.0866 C   0  0  0  0  0  0  0  0  0  0  0  0
    0.4027   -1.3979    0.0826 C   0  0  0  0  0  0  0  0  0  0  0  0
    1.2549   -0.0438    0.0639 C   0  0  0  0  0  0  0  0  0  0  0  0
    0.9415    1.4212   -0.4847 C   0  0  0  0  0  0  0  0  0  0  0  0
   -0.5167    1.2435   -0.9421 C   0  0  0  0  0  0  0  0  0  0  0  0
    1.1008    0.5090    1.4633 C   0  0  0  0  0  0  0  0  0  0  0  0
    2.5657    0.9213    1.5279 C   0  0  0  0  0  0  0  0  0  0  0  0
    2.8512    0.2328    2.8823 C   0  0  0  0  0  0  0  0  0  0  0  0
    2.2980   -1.2106    2.6362 C   0  0  0  0  0  0  0  0  0  0  0  0
    2.7422   -1.9065    1.1920 C   0  0  0  0  0  0  0  0  0  0  0  0
    2.4833   -0.9429   -0.2860 C   0  0  0  0  0  0  0  0  0  0  0  0
  1  2  1  0  0  0  0
  1  8  1  0  0  0  0
  2  3  1  0  0  0  0
  3  4  1  0  0  0  0
  4  5  1  0  0  0  0
  5  6  1  0  0  0  0
  5  9  1  0  0  0  0
  5 13  1  0  0  0  0
  6  7  1  0  0  0  0
  7  8  1  0  0  0  0
  9 10  1  0  0  0  0
 10 11  1  0  0  0  0
 11 12  1  0  0  0  0
 12 13  1  0  0  0  0
M  END
