
 OpenBabel03222517363D

 12 14  0  0  0  0  0  0  0  0999 V2000
   -2.7779   -0.9169    0.5665 C   0  0  0  0  0  0  0  0  0  0  0  0
   -2.2551   -2.0807   -0.2851 C   0  0  0  0  0  0  0  0  0  0  0  0
   -0.7869   -2.3106    0.0660 C   0  0  0  0  0  0  0  0  0  0  0  0
   -0.0320   -1.2609   -0.7221 C   0  0  0  0  0  0  0  0  0  0  0  0
   -0.8498    0.1272   -0.6771 C   0  0  0  0  0  0  0  0  0  0  0  0
   -2.1701    0.3965    0.1248 C   0  0  0  0  0  0  0  0  0  0  0  0
    0.0925    0.5076    0.4714 C   0  0  0  0  0  0  0  0  0  0  0  0
    0.3107    2.0141    0.2886 C   0  0  0  0  0  0  0  0  0  0  0  0
    1.6409    2.1964   -0.3731 C   0  0  0  0  0  0  0  0  0  0  0  0
    2.6372    1.2233    0.2739 C   0  0  0  0  0  0  0  0  0  0  0  0
    2.4113   -0.1232   -0.4320 C   0  0  0  0  0  0  0  0  0  0  0  0
    1.0974   -0.6185    0.0904 C   0  0  0  0  0  0  0  0  0  0  0  0
  1  2  1  0  0  0  0
  1  7  1  0  0  0  0
  2  3  1  0  0  0  0
  3  4  1  0  0  0  0
  4  5  1  0  0  0  0
  4 12  1  0  0  0  0
  5  6  1  0  0  0  0
  5  8  1  0  0  0  0
  6  7  1  0  0  0  0
  8  9  1  0  0  0  0
  8 12  1  0  0  0  0
  9 10  1  0  0  0  0
 10 11  1  0  0  0  0
 11 12  1  0  0  0  0
M  END
