
 OpenBabel03222517383D

 15 18  0  0  0  0  0  0  0  0999 V2000
   -0.6911    1.7787   -1.4053 C   0  0  0  0  0  0  0  0  0  0  0  0
    0.3150    2.7787   -0.6365 C   0  0  0  0  0  0  0  0  0  0  0  0
    0.7744    1.9649    0.5737 C   0  0  0  0  0  0  0  0  0  0  0  0
    1.2742    0.8624   -0.2840 C   0  0  0  0  0  0  0  0  0  0  0  0
    0.7501   -0.4805    0.4002 C   0  0  0  0  0  0  0  0  0  0  0  0
    2.5526   -0.6795    0.4107 C   0  0  0  0  0  0  0  0  0  0  0  0
    2.2459   -1.9815    0.8544 C   0  0  0  0  0  0  0  0  0  0  0  0
    1.6146   -2.2685   -0.6046 C   0  0  0  0  0  0  0  0  0  0  0  0
    0.3375   -1.5095   -0.5526 C   0  0  0  0  0  0  0  0  0  0  0  0
   -0.5489   -0.2436   -1.4560 C   0  0  0  0  0  0  0  0  0  0  0  0
   -0.9927   -1.1469    1.1338 C   0  0  0  0  0  0  0  0  0  0  0  0
   -2.6795   -0.5963    0.6013 C   0  0  0  0  0  0  0  0  0  0  0  0
   -2.4594    0.8052    1.2755 C   0  0  0  0  0  0  0  0  0  0  0  0
   -1.4065    1.1116    0.6656 C   0  0  0  0  0  0  0  0  0  0  0  0
   -0.5496    1.2698    1.6351 C   0  0  0  0  0  0  0  0  0  0  0  0
  1  2  1  0  0  0  0
  1 14  1  0  0  0  0
  2  3  1  0  0  0  0
  3  4  1  0  0  0  0
  3 15  1  0  0  0  0
  4  5  1  0  0  0  0
  5  6  1  0  0  0  0
  5 13  1  0  0  0  0
  6  7  1  0  0  0  0
  6  9  1  0  0  0  0
  7  8  1  0  0  0  0
  8  9  1  0  0  0  0
  9 10  1  0  0  0  0
 10 11  1  0  0  0  0
 11 12  1  0  0  0  0
 12 13  1  0  0  0  0
 13 14  1  0  0  0  0
 13 15  1  0  0  0  0
M  END
