
 OpenBabel03222517373D

 14 16  0  0  0  0  0  0  0  0999 V2000
   -1.4453    2.8202    1.0121 C   0  0  0  0  0  0  0  0  0  0  0  0
   -0.1682    3.0331    0.1897 C   0  0  0  0  0  0  0  0  0  0  0  0
    0.8701    1.9767    0.7258 C   0  0  0  0  0  0  0  0  0  0  0  0
    0.4392    0.5654    0.3281 C   0  0  0  0  0  0  0  0  0  0  0  0
   -1.2094    0.6086   -0.1718 C   0  0  0  0  0  0  0  0  0  0  0  0
   -2.0307    1.4982    0.7795 C   0  0  0  0  0  0  0  0  0  0  0  0
   -2.1647    0.1016   -0.9284 C   0  0  0  0  0  0  0  0  0  0  0  0
   -1.6174   -1.2145   -0.5008 C   0  0  0  0  0  0  0  0  0  0  0  0
   -0.0156   -1.5823   -0.9677 C   0  0  0  0  0  0  0  0  0  0  0  0
   -0.0234   -2.8661   -0.0350 C   0  0  0  0  0  0  0  0  0  0  0  0
    1.3718   -2.6949    0.0918 C   0  0  0  0  0  0  0  0  0  0  0  0
    1.3276   -0.9782    0.8830 C   0  0  0  0  0  0  0  0  0  0  0  0
    2.6810   -0.9631    0.3277 C   0  0  0  0  0  0  0  0  0  0  0  0
    1.8283   -0.8208   -1.0418 C   0  0  0  0  0  0  0  0  0  0  0  0
  1  2  1  0  0  0  0
  1  7  1  0  0  0  0
  2  3  1  0  0  0  0
  3  4  1  0  0  0  0
  4  5  1  0  0  0  0
  4 14  1  0  0  0  0
  5  6  1  0  0  0  0
  5  8  1  0  0  0  0
  6  7  1  0  0  0  0
  8  9  1  0  0  0  0
  8 14  1  0  0  0  0
  9 10  1  0  0  0  0
 10 11  1  0  0  0  0
 11 12  1  0  0  0  0
 12 13  1  0  0  0  0
 13 14  1  0  0  0  0
M  END
