
 OpenBabel03222517363D

  9 12  0  0  0  0  0  0  0  0999 V2000
   -1.6006    1.4163    0.3116 C   0  0  0  0  0  0  0  0  0  0  0  0
   -2.0470   -0.0140    0.1212 C   0  0  0  0  0  0  0  0  0  0  0  0
   -1.1664   -1.3102    0.2046 C   0  0  0  0  0  0  0  0  0  0  0  0
    0.1144   -1.4133   -0.5805 C   0  0  0  0  0  0  0  0  0  0  0  0
    0.8611   -0.0917   -0.2370 C   0  0  0  0  0  0  0  0  0  0  0  0
    1.9933   -0.2245    0.8495 C   0  0  0  0  0  0  0  0  0  0  0  0
    2.3288    0.0417   -0.5649 C   0  0  0  0  0  0  0  0  0  0  0  0
   -0.1498    0.8814    0.4520 C   0  0  0  0  0  0  0  0  0  0  0  0
   -0.9278   -0.1932    1.1267 C   0  0  0  0  0  0  0  0  0  0  0  0
  1  2  1  0  0  0  0
  1  8  1  0  0  0  0
  2  3  1  0  0  0  0
  2  9  1  0  0  0  0
  3  4  1  0  0  0  0
  3  9  1  0  0  0  0
  4  5  1  0  0  0  0
  5  6  1  0  0  0  0
  5  7  1  0  0  0  0
  5  8  1  0  0  0  0
  6  7  1  0  0  0  0
  8  9  1  0  0  0  0
M  END
