
 OpenBabel03222517383D

 14 18  0  0  0  0  0  0  0  0999 V2000
   -2.0671    0.0378   -0.1204 C   0  0  0  0  0  0  0  0  0  0  0  0
   -2.8259    1.1429   -0.7654 C   0  0  0  0  0  0  0  0  0  0  0  0
   -1.8457    1.9490   -0.0627 C   0  0  0  0  0  0  0  0  0  0  0  0
   -2.2206    1.2985    1.5853 C   0  0  0  0  0  0  0  0  0  0  0  0
   -0.9412    0.8793    1.1573 C   0  0  0  0  0  0  0  0  0  0  0  0
    0.1678    1.6115    0.5525 C   0  0  0  0  0  0  0  0  0  0  0  0
   -0.1825    1.4768   -0.8213 C   0  0  0  0  0  0  0  0  0  0  0  0
    1.3060    0.3314   -0.6699 C   0  0  0  0  0  0  0  0  0  0  0  0
    1.7061   -1.3849   -0.8077 C   0  0  0  0  0  0  0  0  0  0  0  0
    1.9915   -2.3456    0.5140 C   0  0  0  0  0  0  0  0  0  0  0  0
    1.0624   -1.9256    1.6026 C   0  0  0  0  0  0  0  0  0  0  0  0
    0.2060   -1.0594    0.7706 C   0  0  0  0  0  0  0  0  0  0  0  0
    0.2483   -1.5644   -0.6820 C   0  0  0  0  0  0  0  0  0  0  0  0
    0.9320    0.3522    0.7762 C   0  0  0  0  0  0  0  0  0  0  0  0
  1  2  1  0  0  0  0
  1 13  1  0  0  0  0
  2  3  1  0  0  0  0
  3  4  1  0  0  0  0
  3 14  1  0  0  0  0
  4  5  1  0  0  0  0
  5  6  1  0  0  0  0
  6  7  1  0  0  0  0
  6  8  1  0  0  0  0
  6 14  1  0  0  0  0
  7  8  1  0  0  0  0
  8  9  1  0  0  0  0
  9 10  1  0  0  0  0
  9 11  1  0  0  0  0
 10 11  1  0  0  0  0
 11 12  1  0  0  0  0
 12 13  1  0  0  0  0
 12 14  1  0  0  0  0
M  END
