
 OpenBabel03222517363D

 11 13  0  0  0  0  0  0  0  0999 V2000
    2.6817   -0.5648   -0.0573 C   0  0  0  0  0  0  0  0  0  0  0  0
    2.2471    0.7016   -0.7878 C   0  0  0  0  0  0  0  0  0  0  0  0
    1.4210    1.6151    0.1619 C   0  0  0  0  0  0  0  0  0  0  0  0
    0.4457    0.7866    1.1019 C   0  0  0  0  0  0  0  0  0  0  0  0
    0.3477   -0.7023    0.6843 C   0  0  0  0  0  0  0  0  0  0  0  0
    1.4801   -1.4774    0.0429 C   0  0  0  0  0  0  0  0  0  0  0  0
   -0.6240   -0.0342   -0.3489 C   0  0  0  0  0  0  0  0  0  0  0  0
   -1.4101   -0.9551   -1.2424 C   0  0  0  0  0  0  0  0  0  0  0  0
   -2.7308   -0.2877   -1.0606 C   0  0  0  0  0  0  0  0  0  0  0  0
   -2.7002    0.2832    0.3696 C   0  0  0  0  0  0  0  0  0  0  0  0
   -1.2703    0.6616    0.8850 C   0  0  0  0  0  0  0  0  0  0  0  0
  1  2  1  0  0  0  0
  1  6  1  0  0  0  0
  2  3  1  0  0  0  0
  3  4  1  0  0  0  0
  4  5  1  0  0  0  0
  4  7  1  0  0  0  0
  5  6  1  0  0  0  0
  5  7  1  0  0  0  0
  7  8  1  0  0  0  0
  7 11  1  0  0  0  0
  8  9  1  0  0  0  0
  9 10  1  0  0  0  0
 10 11  1  0  0  0  0
M  END
