
 OpenBabel03222517373D

 13 15  0  0  0  0  0  0  0  0999 V2000
    1.4984    2.1184   -0.2190 C   0  0  0  0  0  0  0  0  0  0  0  0
    2.7129    0.6057   -0.0703 C   0  0  0  0  0  0  0  0  0  0  0  0
    1.9984   -1.2360    0.1186 C   0  0  0  0  0  0  0  0  0  0  0  0
    0.2403   -1.1636    1.2190 C   0  0  0  0  0  0  0  0  0  0  0  0
    1.4414   -0.8183    0.7527 C   0  0  0  0  0  0  0  0  0  0  0  0
    0.5531   -1.5398   -1.0718 C   0  0  0  0  0  0  0  0  0  0  0  0
   -0.7396   -0.9740   -1.4200 C   0  0  0  0  0  0  0  0  0  0  0  0
   -2.3591   -1.5586   -0.8464 C   0  0  0  0  0  0  0  0  0  0  0  0
   -2.7776   -0.1623    0.0486 C   0  0  0  0  0  0  0  0  0  0  0  0
   -1.2357    0.4100    1.2696 C   0  0  0  0  0  0  0  0  0  0  0  0
   -0.2817    2.1299    0.7974 C   0  0  0  0  0  0  0  0  0  0  0  0
    0.2362    0.4688   -0.7832 C   0  0  0  0  0  0  0  0  0  0  0  0
   -0.8478   -0.2031   -0.5464 C   0  0  0  0  0  0  0  0  0  0  0  0
  1  2  1  0  0  0  0
  1 12  1  0  0  0  0
  2  3  1  0  0  0  0
  3  4  1  0  0  0  0
  4  5  1  0  0  0  0
  4 13  1  0  0  0  0
  5  6  1  0  0  0  0
  6  7  1  0  0  0  0
  7  8  1  0  0  0  0
  7 13  1  0  0  0  0
  8  9  1  0  0  0  0
  9 10  1  0  0  0  0
 10 11  1  0  0  0  0
 11 12  1  0  0  0  0
 11 13  1  0  0  0  0
M  END
