
 OpenBabel03222517363D

 11 14  0  0  0  0  0  0  0  0999 V2000
    1.4309    0.4662   -0.9495 C   0  0  0  0  0  0  0  0  0  0  0  0
    0.2060    1.3489   -0.0226 C   0  0  0  0  0  0  0  0  0  0  0  0
   -0.8767    0.6206   -0.7148 C   0  0  0  0  0  0  0  0  0  0  0  0
   -0.3177    1.1959   -2.0384 C   0  0  0  0  0  0  0  0  0  0  0  0
    1.0970    0.7932   -2.4157 C   0  0  0  0  0  0  0  0  0  0  0  0
    1.8432    2.1504   -2.9943 C   0  0  0  0  0  0  0  0  0  0  0  0
    0.6261    3.1078   -3.0407 C   0  0  0  0  0  0  0  0  0  0  0  0
    0.0920    4.4290   -2.5401 C   0  0  0  0  0  0  0  0  0  0  0  0
   -1.0911    3.9204   -1.5591 C   0  0  0  0  0  0  0  0  0  0  0  0
   -0.3660    2.9863   -0.4961 C   0  0  0  0  0  0  0  0  0  0  0  0
    0.3125    2.5495   -1.6642 C   0  0  0  0  0  0  0  0  0  0  0  0
  1  2  1  0  0  0  0
  1  8  1  0  0  0  0
  2  3  1  0  0  0  0
  2 11  1  0  0  0  0
  3  4  1  0  0  0  0
  4  5  1  0  0  0  0
  4 10  1  0  0  0  0
  5  6  1  0  0  0  0
  6  7  1  0  0  0  0
  6 10  1  0  0  0  0
  7  8  1  0  0  0  0
  8  9  1  0  0  0  0
  9 10  1  0  0  0  0
 10 11  1  0  0  0  0
M  END
