
 OpenBabel03222517363D

 14 15  0  0  0  0  0  0  0  0999 V2000
   -1.3247    2.5912    0.3911 C   0  0  0  0  0  0  0  0  0  0  0  0
   -0.0628    3.2237   -0.1739 C   0  0  0  0  0  0  0  0  0  0  0  0
    1.1507    2.5197    0.3650 C   0  0  0  0  0  0  0  0  0  0  0  0
    1.6886    1.5418   -0.6625 C   0  0  0  0  0  0  0  0  0  0  0  0
    2.3982    0.4559    0.0390 C   0  0  0  0  0  0  0  0  0  0  0  0
    1.5824   -0.8635    0.3474 C   0  0  0  0  0  0  0  0  0  0  0  0
    2.3984   -2.1270   -0.0204 C   0  0  0  0  0  0  0  0  0  0  0  0
    1.4386   -3.0437   -0.7418 C   0  0  0  0  0  0  0  0  0  0  0  0
    0.1790   -2.8530    0.0866 C   0  0  0  0  0  0  0  0  0  0  0  0
   -0.0372   -1.3240   -0.0410 C   0  0  0  0  0  0  0  0  0  0  0  0
   -1.4313   -1.1002    0.7418 C   0  0  0  0  0  0  0  0  0  0  0  0
   -2.7544   -0.6886   -0.0597 C   0  0  0  0  0  0  0  0  0  0  0  0
   -3.0230    0.8022    0.1145 C   0  0  0  0  0  0  0  0  0  0  0  0
   -1.8841    1.5466   -0.5469 C   0  0  0  0  0  0  0  0  0  0  0  0
  1  2  1  0  0  0  0
  1 14  1  0  0  0  0
  2  3  1  0  0  0  0
  3  4  1  0  0  0  0
  4  5  1  0  0  0  0
  5  6  1  0  0  0  0
  6  7  1  0  0  0  0
  7  8  1  0  0  0  0
  7 10  1  0  0  0  0
  8  9  1  0  0  0  0
  9 10  1  0  0  0  0
 10 11  1  0  0  0  0
 11 12  1  0  0  0  0
 12 13  1  0  0  0  0
 13 14  1  0  0  0  0
M  END
