
 OpenBabel03222517383D

 14 18  0  0  0  0  0  0  0  0999 V2000
    3.0443    0.2499   -0.1360 C   0  0  0  0  0  0  0  0  0  0  0  0
    2.0556   -0.8077   -0.5136 C   0  0  0  0  0  0  0  0  0  0  0  0
    1.2719   -1.4730    0.5711 C   0  0  0  0  0  0  0  0  0  0  0  0
   -0.1381   -0.8619    0.6225 C   0  0  0  0  0  0  0  0  0  0  0  0
   -0.4667   -0.6830    2.1767 C   0  0  0  0  0  0  0  0  0  0  0  0
    0.3018    0.6803    2.0384 C   0  0  0  0  0  0  0  0  0  0  0  0
   -0.2700    0.7143    0.6026 C   0  0  0  0  0  0  0  0  0  0  0  0
    0.6773    1.4876   -0.3174 C   0  0  0  0  0  0  0  0  0  0  0  0
    1.8127    0.6650   -0.9044 C   0  0  0  0  0  0  0  0  0  0  0  0
   -1.7584    1.2022    0.6347 C   0  0  0  0  0  0  0  0  0  0  0  0
   -2.7000    0.3480   -0.2062 C   0  0  0  0  0  0  0  0  0  0  0  0
   -3.2898   -0.9921    0.3675 C   0  0  0  0  0  0  0  0  0  0  0  0
   -2.2896   -0.9235   -0.7413 C   0  0  0  0  0  0  0  0  0  0  0  0
   -0.9032   -1.4105   -0.5921 C   0  0  0  0  0  0  0  0  0  0  0  0
  1  2  1  0  0  0  0
  1  9  1  0  0  0  0
  2  3  1  0  0  0  0
  2  9  1  0  0  0  0
  3  4  1  0  0  0  0
  4  5  1  0  0  0  0
  4  7  1  0  0  0  0
  4 14  1  0  0  0  0
  5  6  1  0  0  0  0
  6  7  1  0  0  0  0
  7  8  1  0  0  0  0
  7 10  1  0  0  0  0
  8  9  1  0  0  0  0
 10 11  1  0  0  0  0
 11 12  1  0  0  0  0
 11 13  1  0  0  0  0
 12 13  1  0  0  0  0
 13 14  1  0  0  0  0
M  END
