
 OpenBabel03222517373D

 14 16  0  0  0  0  0  0  0  0999 V2000
   -1.5674    2.8484    0.1652 C   0  0  0  0  0  0  0  0  0  0  0  0
   -0.1648    3.3054   -0.1245 C   0  0  0  0  0  0  0  0  0  0  0  0
    0.7191    2.2946    0.5259 C   0  0  0  0  0  0  0  0  0  0  0  0
    0.3858    0.9212   -0.0541 C   0  0  0  0  0  0  0  0  0  0  0  0
    1.6957    0.2306    0.2494 C   0  0  0  0  0  0  0  0  0  0  0  0
    1.5269   -1.1268   -0.2159 C   0  0  0  0  0  0  0  0  0  0  0  0
    2.0909   -2.1409    0.7483 C   0  0  0  0  0  0  0  0  0  0  0  0
    1.6656   -3.2633   -0.2091 C   0  0  0  0  0  0  0  0  0  0  0  0
    0.2222   -3.2674    0.0774 C   0  0  0  0  0  0  0  0  0  0  0  0
    0.0305   -1.7880   -0.3202 C   0  0  0  0  0  0  0  0  0  0  0  0
   -0.9749   -1.2461    0.6528 C   0  0  0  0  0  0  0  0  0  0  0  0
   -1.1430    0.1910    0.3255 C   0  0  0  0  0  0  0  0  0  0  0  0
   -2.4384    0.6447   -0.4695 C   0  0  0  0  0  0  0  0  0  0  0  0
   -2.0407    1.9818   -1.0247 C   0  0  0  0  0  0  0  0  0  0  0  0
  1  2  1  0  0  0  0
  1 14  1  0  0  0  0
  2  3  1  0  0  0  0
  3  4  1  0  0  0  0
  4  5  1  0  0  0  0
  4 13  1  0  0  0  0
  5  6  1  0  0  0  0
  6  7  1  0  0  0  0
  6 10  1  0  0  0  0
  7  8  1  0  0  0  0
  8  9  1  0  0  0  0
  9 10  1  0  0  0  0
 10 11  1  0  0  0  0
 11 12  1  0  0  0  0
 12 13  1  0  0  0  0
 13 14  1  0  0  0  0
M  END
