
 OpenBabel03222517383D

 14 17  0  0  0  0  0  0  0  0999 V2000
   -2.9230   -1.2032    0.2996 C   0  0  0  0  0  0  0  0  0  0  0  0
   -2.1337   -2.3424   -0.3472 C   0  0  0  0  0  0  0  0  0  0  0  0
   -0.8350   -2.5120    0.4439 C   0  0  0  0  0  0  0  0  0  0  0  0
   -0.0756   -1.3385   -0.1155 C   0  0  0  0  0  0  0  0  0  0  0  0
   -1.1893    0.2835    0.2244 C   0  0  0  0  0  0  0  0  0  0  0  0
   -2.5405    0.0794   -0.4143 C   0  0  0  0  0  0  0  0  0  0  0  0
   -0.4015    1.6331   -0.1488 C   0  0  0  0  0  0  0  0  0  0  0  0
    0.2291    0.6253   -0.8354 C   0  0  0  0  0  0  0  0  0  0  0  0
    0.7617   -0.1119    0.9852 C   0  0  0  0  0  0  0  0  0  0  0  0
    1.5050   -1.0344    0.2483 C   0  0  0  0  0  0  0  0  0  0  0  0
    2.2683    0.3410   -0.1231 C   0  0  0  0  0  0  0  0  0  0  0  0
    3.1701    1.4264    0.5315 C   0  0  0  0  0  0  0  0  0  0  0  0
    2.4111    2.4426   -0.5157 C   0  0  0  0  0  0  0  0  0  0  0  0
    1.1248    1.9335    0.2053 C   0  0  0  0  0  0  0  0  0  0  0  0
  1  2  1  0  0  0  0
  1  6  1  0  0  0  0
  2  3  1  0  0  0  0
  3  4  1  0  0  0  0
  4  5  1  0  0  0  0
  4 10  1  0  0  0  0
  5  6  1  0  0  0  0
  5  7  1  0  0  0  0
  7  8  1  0  0  0  0
  7 14  1  0  0  0  0
  8  9  1  0  0  0  0
  9 10  1  0  0  0  0
 10 11  1  0  0  0  0
 11 12  1  0  0  0  0
 11 14  1  0  0  0  0
 12 13  1  0  0  0  0
 13 14  1  0  0  0  0
M  END
