
 OpenBabel03222517353D

 10 12  0  0  0  0  0  0  0  0999 V2000
   -0.9347   -0.1716    1.2282 C   0  0  0  0  0  0  0  0  0  0  0  0
   -1.0134    1.2115    0.4725 C   0  0  0  0  0  0  0  0  0  0  0  0
   -0.3519    1.0736   -0.7983 C   0  0  0  0  0  0  0  0  0  0  0  0
    1.1153    0.7860   -0.8475 C   0  0  0  0  0  0  0  0  0  0  0  0
    2.0861    0.5243    0.2510 C   0  0  0  0  0  0  0  0  0  0  0  0
    1.4293    0.2344    1.6084 C   0  0  0  0  0  0  0  0  0  0  0  0
    0.5279   -1.0225    1.3751 C   0  0  0  0  0  0  0  0  0  0  0  0
    0.3715   -2.1704    0.2908 C   0  0  0  0  0  0  0  0  0  0  0  0
   -0.3726   -1.7189   -0.9325 C   0  0  0  0  0  0  0  0  0  0  0  0
   -0.2194   -0.2966   -1.4030 C   0  0  0  0  0  0  0  0  0  0  0  0
  1  2  1  0  0  0  0
  1 10  1  0  0  0  0
  2  3  1  0  0  0  0
  3  4  1  0  0  0  0
  3  9  1  0  0  0  0
  4  5  1  0  0  0  0
  5  6  1  0  0  0  0
  5  8  1  0  0  0  0
  6  7  1  0  0  0  0
  7  8  1  0  0  0  0
  8  9  1  0  0  0  0
  9 10  1  0  0  0  0
M  END
