
 OpenBabel03222517373D

 14 16  0  0  0  0  0  0  0  0999 V2000
    2.8916    0.1601   -0.4465 C   0  0  0  0  0  0  0  0  0  0  0  0
    2.1845   -1.1937   -0.3105 C   0  0  0  0  0  0  0  0  0  0  0  0
    1.1160   -1.3042    0.8062 C   0  0  0  0  0  0  0  0  0  0  0  0
    1.4729   -0.3213    2.1707 C   0  0  0  0  0  0  0  0  0  0  0  0
    0.5403    1.0816    2.5785 C   0  0  0  0  0  0  0  0  0  0  0  0
    0.3800    2.3066    1.2773 C   0  0  0  0  0  0  0  0  0  0  0  0
    0.6810    1.4631    0.0395 C   0  0  0  0  0  0  0  0  0  0  0  0
    1.9059    1.2940   -0.9149 C   0  0  0  0  0  0  0  0  0  0  0  0
   -0.4758    0.4488    0.0930 C   0  0  0  0  0  0  0  0  0  0  0  0
   -1.9014    0.8988    0.4980 C   0  0  0  0  0  0  0  0  0  0  0  0
   -2.7875    0.4516   -0.5989 C   0  0  0  0  0  0  0  0  0  0  0  0
   -2.5959   -1.0577   -0.7911 C   0  0  0  0  0  0  0  0  0  0  0  0
   -1.1019   -1.5498   -0.9358 C   0  0  0  0  0  0  0  0  0  0  0  0
   -0.3252   -1.0429    0.2621 C   0  0  0  0  0  0  0  0  0  0  0  0
  1  2  1  0  0  0  0
  1  8  1  0  0  0  0
  2  3  1  0  0  0  0
  3  4  1  0  0  0  0
  3 14  1  0  0  0  0
  4  5  1  0  0  0  0
  5  6  1  0  0  0  0
  6  7  1  0  0  0  0
  7  8  1  0  0  0  0
  7  9  1  0  0  0  0
  9 10  1  0  0  0  0
  9 14  1  0  0  0  0
 10 11  1  0  0  0  0
 11 12  1  0  0  0  0
 12 13  1  0  0  0  0
 13 14  1  0  0  0  0
M  END
