
 OpenBabel03222517353D

  9 11  0  0  0  0  0  0  0  0999 V2000
    0.8056   -0.4098   -1.4533 C   0  0  0  0  0  0  0  0  0  0  0  0
    2.0176   -0.1901   -0.4750 C   0  0  0  0  0  0  0  0  0  0  0  0
    1.1793   -0.1574    0.6918 C   0  0  0  0  0  0  0  0  0  0  0  0
    0.0837    0.8888    0.9431 C   0  0  0  0  0  0  0  0  0  0  0  0
   -0.4520    1.7434   -0.2386 C   0  0  0  0  0  0  0  0  0  0  0  0
   -0.8534    0.5295   -1.1484 C   0  0  0  0  0  0  0  0  0  0  0  0
   -1.6136   -0.6199   -0.4072 C   0  0  0  0  0  0  0  0  0  0  0  0
   -0.4112   -1.1850    0.2529 C   0  0  0  0  0  0  0  0  0  0  0  0
   -0.4386   -0.8555    1.7129 C   0  0  0  0  0  0  0  0  0  0  0  0
  1  2  1  0  0  0  0
  1  9  1  0  0  0  0
  2  3  1  0  0  0  0
  3  4  1  0  0  0  0
  3  9  1  0  0  0  0
  4  5  1  0  0  0  0
  5  6  1  0  0  0  0
  5  7  1  0  0  0  0
  6  7  1  0  0  0  0
  7  8  1  0  0  0  0
  8  9  1  0  0  0  0
M  END
