
 OpenBabel03222517383D

 14 17  0  0  0  0  0  0  0  0999 V2000
   -2.3874   -0.8503    0.3221 C   0  0  0  0  0  0  0  0  0  0  0  0
   -1.3574   -1.7722   -0.2975 C   0  0  0  0  0  0  0  0  0  0  0  0
   -0.0009   -1.4793    0.3462 C   0  0  0  0  0  0  0  0  0  0  0  0
    1.0979   -2.2743   -0.3527 C   0  0  0  0  0  0  0  0  0  0  0  0
    2.4248   -1.8117    0.2098 C   0  0  0  0  0  0  0  0  0  0  0  0
    2.6936   -0.4575   -0.4244 C   0  0  0  0  0  0  0  0  0  0  0  0
    1.8055    0.5592    0.3042 C   0  0  0  0  0  0  0  0  0  0  0  0
    1.7456    1.8880   -0.4554 C   0  0  0  0  0  0  0  0  0  0  0  0
    0.7858    2.8562    0.2883 C   0  0  0  0  0  0  0  0  0  0  0  0
   -0.3428    2.2191   -0.5399 C   0  0  0  0  0  0  0  0  0  0  0  0
    0.7009    1.7289   -1.5790 C   0  0  0  0  0  0  0  0  0  0  0  0
   -0.8446    1.0598    0.3233 C   0  0  0  0  0  0  0  0  0  0  0  0
   -2.1189    0.5008   -0.3018 C   0  0  0  0  0  0  0  0  0  0  0  0
    0.3277    0.0343    0.6303 C   0  0  0  0  0  0  0  0  0  0  0  0
  1  2  1  0  0  0  0
  1 13  1  0  0  0  0
  2  3  1  0  0  0  0
  3  4  1  0  0  0  0
  3 14  1  0  0  0  0
  4  5  1  0  0  0  0
  5  6  1  0  0  0  0
  6  7  1  0  0  0  0
  7  8  1  0  0  0  0
  7 14  1  0  0  0  0
  8  9  1  0  0  0  0
  8 11  1  0  0  0  0
  9 10  1  0  0  0  0
 10 11  1  0  0  0  0
 10 12  1  0  0  0  0
 12 13  1  0  0  0  0
 12 14  1  0  0  0  0
M  END
