
 OpenBabel03222517383D

 12 15  0  0  0  0  0  0  0  0999 V2000
    1.7541   -0.3811   -0.3072 C   0  0  0  0  0  0  0  0  0  0  0  0
    0.8852    0.7672   -0.9001 C   0  0  0  0  0  0  0  0  0  0  0  0
   -0.3447    0.0693   -0.3486 C   0  0  0  0  0  0  0  0  0  0  0  0
    0.5885   -0.7052    0.6402 C   0  0  0  0  0  0  0  0  0  0  0  0
   -1.2879    0.9121    0.4492 C   0  0  0  0  0  0  0  0  0  0  0  0
   -2.2087   -0.2934    0.3035 C   0  0  0  0  0  0  0  0  0  0  0  0
   -3.6666    0.0181    0.1282 C   0  0  0  0  0  0  0  0  0  0  0  0
   -3.7226    1.1380   -0.9938 C   0  0  0  0  0  0  0  0  0  0  0  0
   -4.3217    0.3255   -2.0471 C   0  0  0  0  0  0  0  0  0  0  0  0
   -3.3683   -0.9049   -1.8141 C   0  0  0  0  0  0  0  0  0  0  0  0
   -4.0009   -1.3496   -0.5143 C   0  0  0  0  0  0  0  0  0  0  0  0
   -1.6756   -0.6661   -1.1781 C   0  0  0  0  0  0  0  0  0  0  0  0
  1  2  1  0  0  0  0
  1  4  1  0  0  0  0
  2  3  1  0  0  0  0
  3  4  1  0  0  0  0
  3  5  1  0  0  0  0
  3 12  1  0  0  0  0
  5  6  1  0  0  0  0
  6  7  1  0  0  0  0
  6 12  1  0  0  0  0
  7  8  1  0  0  0  0
  7 11  1  0  0  0  0
  8  9  1  0  0  0  0
  9 10  1  0  0  0  0
 10 11  1  0  0  0  0
 10 12  1  0  0  0  0
M  END
