
 OpenBabel03222517373D

 14 16  0  0  0  0  0  0  0  0999 V2000
   -0.0270    2.8886    0.2302 C   0  0  0  0  0  0  0  0  0  0  0  0
   -1.3843    2.7704   -0.4179 C   0  0  0  0  0  0  0  0  0  0  0  0
   -1.9391    1.4390   -0.0444 C   0  0  0  0  0  0  0  0  0  0  0  0
   -1.6884    0.0257   -1.1079 C   0  0  0  0  0  0  0  0  0  0  0  0
   -1.4607   -1.5277   -0.4556 C   0  0  0  0  0  0  0  0  0  0  0  0
   -0.7704   -2.6989    0.3402 C   0  0  0  0  0  0  0  0  0  0  0  0
    0.4982   -2.6436   -0.2804 C   0  0  0  0  0  0  0  0  0  0  0  0
    0.8348   -1.6570    0.7213 C   0  0  0  0  0  0  0  0  0  0  0  0
   -0.6043   -0.6671    0.6549 C   0  0  0  0  0  0  0  0  0  0  0  0
    0.6158    0.5991    0.4571 C   0  0  0  0  0  0  0  0  0  0  0  0
    0.7551    1.8165   -0.4536 C   0  0  0  0  0  0  0  0  0  0  0  0
   -2.4264   -0.5639    1.3287 C   0  0  0  0  0  0  0  0  0  0  0  0
   -3.4158   -1.7338    1.0215 C   0  0  0  0  0  0  0  0  0  0  0  0
   -2.8550   -2.2986   -0.2051 C   0  0  0  0  0  0  0  0  0  0  0  0
  1  2  1  0  0  0  0
  1 11  1  0  0  0  0
  2  3  1  0  0  0  0
  3  4  1  0  0  0  0
  4  5  1  0  0  0  0
  5  6  1  0  0  0  0
  5  9  1  0  0  0  0
  5 14  1  0  0  0  0
  6  7  1  0  0  0  0
  7  8  1  0  0  0  0
  8  9  1  0  0  0  0
  9 10  1  0  0  0  0
  9 12  1  0  0  0  0
 10 11  1  0  0  0  0
 12 13  1  0  0  0  0
 13 14  1  0  0  0  0
M  END
