
 OpenBabel03222517363D

 11 13  0  0  0  0  0  0  0  0999 V2000
   -2.4114    0.6877    0.3247 C   0  0  0  0  0  0  0  0  0  0  0  0
   -2.4857   -0.7224   -0.2712 C   0  0  0  0  0  0  0  0  0  0  0  0
   -1.3546   -1.5492    0.3320 C   0  0  0  0  0  0  0  0  0  0  0  0
   -0.0924   -0.8030   -0.0241 C   0  0  0  0  0  0  0  0  0  0  0  0
    0.0597    0.7406    0.2173 C   0  0  0  0  0  0  0  0  0  0  0  0
   -1.2006    1.4717   -0.2622 C   0  0  0  0  0  0  0  0  0  0  0  0
    1.5635    0.4264    0.5904 C   0  0  0  0  0  0  0  0  0  0  0  0
    2.7357    0.3682   -0.3035 C   0  0  0  0  0  0  0  0  0  0  0  0
    2.8334   -1.0236   -1.0110 C   0  0  0  0  0  0  0  0  0  0  0  0
    2.1323   -1.9412    0.0223 C   0  0  0  0  0  0  0  0  0  0  0  0
    1.1784   -1.0747    0.8324 C   0  0  0  0  0  0  0  0  0  0  0  0
  1  2  1  0  0  0  0
  1  6  1  0  0  0  0
  2  3  1  0  0  0  0
  3  4  1  0  0  0  0
  4  5  1  0  0  0  0
  4  9  1  0  0  0  0
  5  6  1  0  0  0  0
  5  7  1  0  0  0  0
  7  8  1  0  0  0  0
  8  9  1  0  0  0  0
  9 10  1  0  0  0  0
  9 11  1  0  0  0  0
 10 11  1  0  0  0  0
M  END
