
 OpenBabel03222517383D

 15 18  0  0  0  0  0  0  0  0999 V2000
   -3.8507   -1.1598   -0.3936 C   0  0  0  0  0  0  0  0  0  0  0  0
   -2.8342   -2.1608    0.0707 C   0  0  0  0  0  0  0  0  0  0  0  0
   -1.5460   -2.0100   -0.8220 C   0  0  0  0  0  0  0  0  0  0  0  0
   -1.0317   -1.1150    0.2168 C   0  0  0  0  0  0  0  0  0  0  0  0
   -2.0971    0.2284    0.0990 C   0  0  0  0  0  0  0  0  0  0  0  0
   -3.5470    0.1061    0.3976 C   0  0  0  0  0  0  0  0  0  0  0  0
   -1.4044    1.3573    0.7495 C   0  0  0  0  0  0  0  0  0  0  0  0
   -0.2221    0.9595   -0.0789 C   0  0  0  0  0  0  0  0  0  0  0  0
    1.0583    1.4454    0.1183 C   0  0  0  0  0  0  0  0  0  0  0  0
    2.2875    2.3228   -0.0128 C   0  0  0  0  0  0  0  0  0  0  0  0
    3.2891    1.4045    0.6926 C   0  0  0  0  0  0  0  0  0  0  0  0
    3.7858    0.2036   -0.1137 C   0  0  0  0  0  0  0  0  0  0  0  0
    2.6461   -0.7166   -0.4009 C   0  0  0  0  0  0  0  0  0  0  0  0
    1.3413   -0.0490   -0.6050 C   0  0  0  0  0  0  0  0  0  0  0  0
    0.2735   -0.4673    0.3350 C   0  0  0  0  0  0  0  0  0  0  0  0
  1  2  1  0  0  0  0
  1  6  1  0  0  0  0
  2  3  1  0  0  0  0
  3  4  1  0  0  0  0
  4  5  1  0  0  0  0
  4 15  1  0  0  0  0
  5  6  1  0  0  0  0
  5  7  1  0  0  0  0
  7  8  1  0  0  0  0
  8  9  1  0  0  0  0
  9 10  1  0  0  0  0
  9 15  1  0  0  0  0
 10 11  1  0  0  0  0
 10 12  1  0  0  0  0
 11 12  1  0  0  0  0
 12 13  1  0  0  0  0
 13 14  1  0  0  0  0
 14 15  1  0  0  0  0
M  END
