
 OpenBabel03222517353D

 11 13  0  0  0  0  0  0  0  0999 V2000
    1.3021   -1.3287   -0.6676 C   0  0  0  0  0  0  0  0  0  0  0  0
    1.9252    0.0169    0.0523 C   0  0  0  0  0  0  0  0  0  0  0  0
    0.6457    1.2792    0.7952 C   0  0  0  0  0  0  0  0  0  0  0  0
    0.6873    1.9702   -0.4889 C   0  0  0  0  0  0  0  0  0  0  0  0
   -0.7504    1.5652   -0.0758 C   0  0  0  0  0  0  0  0  0  0  0  0
   -0.5070    0.6192   -1.0716 C   0  0  0  0  0  0  0  0  0  0  0  0
   -0.0538   -0.6345    0.6178 C   0  0  0  0  0  0  0  0  0  0  0  0
    0.2040   -1.9044    0.1634 C   0  0  0  0  0  0  0  0  0  0  0  0
   -1.2521   -1.7888   -0.1148 C   0  0  0  0  0  0  0  0  0  0  0  0
   -1.7929   -0.1001   -0.2722 C   0  0  0  0  0  0  0  0  0  0  0  0
   -1.4039    0.8483    1.0747 C   0  0  0  0  0  0  0  0  0  0  0  0
  1  2  1  0  0  0  0
  1  8  1  0  0  0  0
  2  3  1  0  0  0  0
  3  4  1  0  0  0  0
  3 11  1  0  0  0  0
  4  5  1  0  0  0  0
  5  6  1  0  0  0  0
  5 11  1  0  0  0  0
  6  7  1  0  0  0  0
  7  8  1  0  0  0  0
  8  9  1  0  0  0  0
  9 10  1  0  0  0  0
 10 11  1  0  0  0  0
M  END
